<?xml version='1.0' encoding='utf-8'?>
<routes><vType id="pkw" vClass="passenger" accel="2.6" decel="4.5" length="5" maxSpeed="30" /><vType id="bus" vClass="bus" accel="1.3" decel="2.5" length="12" maxSpeed="20" /><vType id="scooter" vClass="motorcycle" accel="3.0" decel="4.0" length="2" maxSpeed="25" /><vType id="bike" vClass="bicycle" accel="1.0" decel="1.5" length="1.8" maxSpeed="15" /><trip id="bus_614" type="bus" depart="7.7" from_="L15" to="L14" /><trip id="bike_175" type="bike" depart="18.01" from_="L16" to="L17" /><trip id="bike_219" type="bike" depart="19.0" from_="L17" to="L14" /><trip id="scooter_54" type="scooter" depart="21.22" from_="L18" to="L15" /><trip id="bus_281" type="bus" depart="21.4" from_="L15" to="L14" /><trip id="bus_249" type="bus" depart="22.31" from_="L18" to="L14" /><trip id="bus_250" type="bus" depart="24.18" from_="L18" to="L17" /><trip id="bike_387" type="bike" depart="25.86" from_="L16" to="L15" /><trip id="bus_469" type="bus" depart="26.45" from_="L17" to="L18" /><trip id="bike_322" type="bike" depart="26.49" from_="L14" to="L16" /><trip id="bus_997" type="bus" depart="28.77" from_="L14" to="L15" /><trip id="pkw_171" type="pkw" depart="29.53" from_="L15" to="L16" /><trip id="bike_112" type="bike" depart="47.54" from_="L18" to="L15" /><trip id="bike_106" type="bike" depart="50.41" from_="L15" to="L16" /><trip id="bike_239" type="bike" depart="51.86" from_="L16" to="L17" /><trip id="bus_415" type="bus" depart="52.31" from_="L14" to="L15" /><trip id="bike_703" type="bike" depart="62.05" from_="L13" to="L15" /><trip id="bus_140" type="bus" depart="62.51" from_="L15" to="L18" /><trip id="bike_426" type="bike" depart="63.34" from_="L13" to="L18" /><trip id="bus_734" type="bus" depart="68.33" from_="L15" to="L18" /><trip id="bike_444" type="bike" depart="68.39" from_="L18" to="L16" /><trip id="scooter_721" type="scooter" depart="73.99" from_="L18" to="L16" /><trip id="scooter_114" type="scooter" depart="77.72" from_="L18" to="L13" /><trip id="bike_634" type="bike" depart="86.81" from_="L18" to="L15" /><trip id="bike_773" type="bike" depart="94.25" from_="L13" to="L18" /><trip id="scooter_64" type="scooter" depart="95.42" from_="L13" to="L18" /><trip id="bike_995" type="bike" depart="96.71" from_="L15" to="L14" /><trip id="bus_524" type="bus" depart="99.03" from_="L16" to="L14" /><trip id="bike_555" type="bike" depart="102.65" from_="L18" to="L16" /><trip id="bike_302" type="bike" depart="109.23" from_="L15" to="L14" /><trip id="bus_998" type="bus" depart="110.17" from_="L15" to="L16" /><trip id="bus_144" type="bus" depart="111.26" from_="L17" to="L14" /><trip id="bike_376" type="bike" depart="116.17" from_="L16" to="L17" /><trip id="bike_142" type="bike" depart="117.14" from_="L13" to="L18" /><trip id="bus_417" type="bus" depart="121.17" from_="L17" to="L16" /><trip id="bike_594" type="bike" depart="123.02" from_="L17" to="L13" /><trip id="bike_869" type="bike" depart="126.68" from_="L16" to="L18" /><trip id="bike_922" type="bike" depart="128.78" from_="L18" to="L15" /><trip id="bike_961" type="bike" depart="129.8" from_="L14" to="L13" /><trip id="bus_125" type="bus" depart="140.55" from_="L16" to="L13" /><trip id="bike_525" type="bike" depart="140.94" from_="L14" to="L18" /><trip id="pkw_655" type="pkw" depart="141.71" from_="L15" to="L16" /><trip id="bike_268" type="bike" depart="141.87" from_="L13" to="L15" /><trip id="bike_60" type="bike" depart="147.66" from_="L17" to="L16" /><trip id="bike_795" type="bike" depart="150.83" from_="L14" to="L16" /><trip id="bike_974" type="bike" depart="156.37" from_="L13" to="L16" /><trip id="bike_321" type="bike" depart="160.35" from_="L17" to="L15" /><trip id="scooter_241" type="scooter" depart="165.9" from_="L18" to="L13" /><trip id="scooter_9" type="scooter" depart="167.19" from_="L18" to="L14" /><trip id="bike_952" type="bike" depart="171.64" from_="L16" to="L17" /><trip id="bike_76" type="bike" depart="172.01" from_="L17" to="L14" /><trip id="scooter_97" type="scooter" depart="174.6" from_="L14" to="L13" /><trip id="bike_267" type="bike" depart="181.86" from_="L13" to="L16" /><trip id="scooter_817" type="scooter" depart="184.27" from_="L18" to="L15" /><trip id="bike_178" type="bike" depart="187.3" from_="L15" to="L16" /><trip id="pkw_881" type="pkw" depart="190.07" from_="L17" to="L16" /><trip id="bus_579" type="bus" depart="195.26" from_="L15" to="L16" /><trip id="bus_670" type="bus" depart="200.07" from_="L13" to="L14" /><trip id="bike_892" type="bike" depart="202.68" from_="L14" to="L15" /><trip id="scooter_438" type="scooter" depart="204.13" from_="L13" to="L18" /><trip id="scooter_744" type="scooter" depart="205.06" from_="L13" to="L15" /><trip id="bus_208" type="bus" depart="208.81" from_="L17" to="L15" /><trip id="bike_485" type="bike" depart="214.8" from_="L18" to="L15" /><trip id="bus_596" type="bus" depart="219.17" from_="L15" to="L13" /><trip id="bike_842" type="bike" depart="219.92" from_="L18" to="L14" /><trip id="pkw_81" type="pkw" depart="220.73" from_="L13" to="L17" /><trip id="bus_821" type="bus" depart="223.49" from_="L17" to="L15" /><trip id="pkw_977" type="pkw" depart="226.04" from_="L16" to="L18" /><trip id="bus_295" type="bus" depart="227.25" from_="L15" to="L16" /><trip id="bike_201" type="bike" depart="229.2" from_="L14" to="L15" /><trip id="scooter_884" type="scooter" depart="233.59" from_="L13" to="L18" /><trip id="scooter_695" type="scooter" depart="234.72" from_="L15" to="L17" /><trip id="bike_896" type="bike" depart="238.83" from_="L17" to="L13" /><trip id="scooter_598" type="scooter" depart="239.96" from_="L18" to="L15" /><trip id="bus_847" type="bus" depart="241.07" from_="L17" to="L15" /><trip id="scooter_859" type="scooter" depart="242.57" from_="L15" to="L17" /><trip id="bike_903" type="bike" depart="244.29" from_="L16" to="L17" /><trip id="bike_78" type="bike" depart="244.47" from_="L17" to="L14" /><trip id="bus_901" type="bus" depart="244.92" from_="L13" to="L16" /><trip id="bike_100" type="bike" depart="246.83" from_="L13" to="L18" /><trip id="bus_226" type="bus" depart="248.57" from_="L13" to="L15" /><trip id="bike_538" type="bike" depart="257.73" from_="L13" to="L17" /><trip id="pkw_464" type="pkw" depart="259.92" from_="L18" to="L13" /><trip id="bike_543" type="bike" depart="260.42" from_="L16" to="L17" /><trip id="bus_857" type="bus" depart="262.96" from_="L16" to="L15" /><trip id="bus_121" type="bus" depart="264.15" from_="L13" to="L16" /><trip id="bus_630" type="bus" depart="269.77" from_="L15" to="L13" /><trip id="bus_272" type="bus" depart="271.0" from_="L13" to="L15" /><trip id="bike_915" type="bike" depart="281.09" from_="L13" to="L16" /><trip id="bike_139" type="bike" depart="284.98" from_="L13" to="L17" /><trip id="bus_365" type="bus" depart="294.62" from_="L14" to="L13" /><trip id="bus_408" type="bus" depart="295.94" from_="L14" to="L13" /><trip id="pkw_704" type="pkw" depart="296.24" from_="L15" to="L18" /><trip id="bike_276" type="bike" depart="299.84" from_="L17" to="L15" /><trip id="bike_19" type="bike" depart="300.0" from_="L18" to="L13" /><trip id="bus_158" type="bus" depart="300.27" from_="L14" to="L17" /><trip id="pkw_967" type="pkw" depart="300.91" from_="L18" to="L14" /><trip id="bus_163" type="bus" depart="308.53" from_="L15" to="L17" /><trip id="bike_652" type="bike" depart="311.92" from_="L18" to="L14" /><trip id="bus_781" type="bus" depart="312.15" from_="L18" to="L14" /><trip id="bike_358" type="bike" depart="325.12" from_="L18" to="L14" /><trip id="pkw_285" type="pkw" depart="328.28" from_="L14" to="L18" /><trip id="bike_749" type="bike" depart="331.02" from_="L17" to="L15" /><trip id="bus_681" type="bus" depart="331.2" from_="L16" to="L17" /><trip id="bus_335" type="bus" depart="335.16" from_="L14" to="L17" /><trip id="bus_590" type="bus" depart="335.68" from_="L16" to="L17" /><trip id="bike_393" type="bike" depart="344.63" from_="L18" to="L13" /><trip id="bus_626" type="bus" depart="350.06" from_="L16" to="L14" /><trip id="bus_658" type="bus" depart="365.72" from_="L17" to="L18" /><trip id="bus_910" type="bus" depart="366.14" from_="L17" to="L16" /><trip id="bus_850" type="bus" depart="376.61" from_="L14" to="L16" /><trip id="bike_253" type="bike" depart="380.74" from_="L16" to="L15" /><trip id="bike_199" type="bike" depart="380.95" from_="L18" to="L15" /><trip id="bike_764" type="bike" depart="383.87" from_="L15" to="L17" /><trip id="bus_632" type="bus" depart="386.58" from_="L15" to="L18" /><trip id="bus_148" type="bus" depart="388.01" from_="L17" to="L14" /><trip id="pkw_359" type="pkw" depart="388.28" from_="L14" to="L15" /><trip id="bus_929" type="bus" depart="389.18" from_="L16" to="L13" /><trip id="bus_116" type="bus" depart="394.5" from_="L18" to="L17" /><trip id="bike_362" type="bike" depart="396.87" from_="L14" to="L16" /><trip id="bus_189" type="bus" depart="399.78" from_="L18" to="L16" /><trip id="scooter_218" type="scooter" depart="412.62" from_="L15" to="L16" /><trip id="bus_353" type="bus" depart="420.36" from_="L14" to="L17" /><trip id="pkw_379" type="pkw" depart="421.9" from_="L15" to="L18" /><trip id="bus_874" type="bus" depart="431.67" from_="L15" to="L17" /><trip id="bike_796" type="bike" depart="436.43" from_="L16" to="L14" /><trip id="bike_169" type="bike" depart="439.09" from_="L17" to="L16" /><trip id="bus_430" type="bus" depart="445.56" from_="L18" to="L17" /><trip id="bus_367" type="bus" depart="453.32" from_="L14" to="L18" /><trip id="bus_911" type="bus" depart="454.31" from_="L16" to="L14" /><trip id="bus_349" type="bus" depart="455.2" from_="L16" to="L18" /><trip id="bike_345" type="bike" depart="459.42" from_="L16" to="L18" /><trip id="bike_669" type="bike" depart="463.9" from_="L18" to="L17" /><trip id="scooter_801" type="scooter" depart="464.06" from_="L18" to="L14" /><trip id="bus_129" type="bus" depart="465.48" from_="L17" to="L16" /><trip id="bike_209" type="bike" depart="468.5" from_="L16" to="L15" /><trip id="bus_855" type="bus" depart="468.97" from_="L13" to="L18" /><trip id="bus_986" type="bus" depart="470.76" from_="L14" to="L15" /><trip id="bike_96" type="bike" depart="479.29" from_="L18" to="L15" /><trip id="pkw_713" type="pkw" depart="479.96" from_="L15" to="L17" /><trip id="bus_788" type="bus" depart="487.89" from_="L13" to="L18" /><trip id="pkw_912" type="pkw" depart="501.63" from_="L17" to="L16" /><trip id="bus_872" type="bus" depart="501.71" from_="L18" to="L16" /><trip id="bike_784" type="bike" depart="510.21" from_="L17" to="L15" /><trip id="bus_323" type="bus" depart="516.7" from_="L16" to="L18" /><trip id="bus_473" type="bus" depart="521.49" from_="L18" to="L13" /><trip id="bike_154" type="bike" depart="522.45" from_="L14" to="L18" /><trip id="bus_786" type="bus" depart="527.7" from_="L17" to="L15" /><trip id="pkw_343" type="pkw" depart="527.87" from_="L16" to="L15" /><trip id="bus_826" type="bus" depart="528.58" from_="L13" to="L14" /><trip id="bus_58" type="bus" depart="534.79" from_="L16" to="L15" /><trip id="bike_297" type="bike" depart="539.06" from_="L16" to="L17" /><trip id="scooter_797" type="scooter" depart="540.24" from_="L14" to="L16" /><trip id="bus_584" type="bus" depart="541.67" from_="L14" to="L15" /><trip id="bike_717" type="bike" depart="544.14" from_="L17" to="L13" /><trip id="scooter_79" type="scooter" depart="547.72" from_="L16" to="L18" /><trip id="bus_227" type="bus" depart="549.9" from_="L14" to="L13" /><trip id="bike_541" type="bike" depart="560.76" from_="L18" to="L17" /><trip id="pkw_85" type="pkw" depart="562.96" from_="L18" to="L14" /><trip id="bike_540" type="bike" depart="566.59" from_="L14" to="L17" /><trip id="bus_309" type="bus" depart="571.78" from_="L16" to="L13" /><trip id="scooter_436" type="scooter" depart="572.12" from_="L18" to="L13" /><trip id="bike_269" type="bike" depart="577.26" from_="L13" to="L16" /><trip id="scooter_601" type="scooter" depart="581.7" from_="L16" to="L18" /><trip id="bike_913" type="bike" depart="586.31" from_="L16" to="L15" /><trip id="bike_298" type="bike" depart="589.44" from_="L16" to="L18" /><trip id="bike_5" type="bike" depart="593.78" from_="L14" to="L16" /><trip id="pkw_388" type="pkw" depart="597.96" from_="L15" to="L14" /><trip id="scooter_887" type="scooter" depart="600.32" from_="L13" to="L18" /><trip id="bike_853" type="bike" depart="602.07" from_="L15" to="L14" /><trip id="pkw_264" type="pkw" depart="604.01" from_="L17" to="L15" /><trip id="bus_205" type="bus" depart="610.73" from_="L13" to="L14" /><trip id="bike_900" type="bike" depart="615.28" from_="L18" to="L14" /><trip id="pkw_656" type="pkw" depart="618.72" from_="L14" to="L15" /><trip id="bike_860" type="bike" depart="621.69" from_="L15" to="L14" /><trip id="pkw_843" type="pkw" depart="623.53" from_="L16" to="L14" /><trip id="bike_779" type="bike" depart="624.51" from_="L13" to="L14" /><trip id="bike_300" type="bike" depart="636.64" from_="L18" to="L15" /><trip id="bike_483" type="bike" depart="639.98" from_="L13" to="L16" /><trip id="pkw_636" type="pkw" depart="641.62" from_="L14" to="L13" /><trip id="scooter_505" type="scooter" depart="657.14" from_="L14" to="L16" /><trip id="bus_654" type="bus" depart="659.4" from_="L14" to="L13" /><trip id="scooter_660" type="scooter" depart="662.16" from_="L15" to="L17" /><trip id="scooter_202" type="scooter" depart="664.19" from_="L15" to="L13" /><trip id="bike_775" type="bike" depart="665.72" from_="L15" to="L17" /><trip id="bus_882" type="bus" depart="667.93" from_="L15" to="L14" /><trip id="bike_294" type="bike" depart="668.24" from_="L13" to="L14" /><trip id="bus_439" type="bus" depart="668.43" from_="L13" to="L17" /><trip id="bus_467" type="bus" depart="674.58" from_="L18" to="L14" /><trip id="bus_316" type="bus" depart="677.51" from_="L17" to="L15" /><trip id="bike_428" type="bike" depart="679.92" from_="L17" to="L13" /><trip id="bike_787" type="bike" depart="693.12" from_="L14" to="L13" /><trip id="pkw_839" type="pkw" depart="693.2" from_="L15" to="L17" /><trip id="bike_190" type="bike" depart="693.5" from_="L18" to="L14" /><trip id="scooter_507" type="scooter" depart="701.3" from_="L13" to="L17" /><trip id="bus_84" type="bus" depart="705.6" from_="L16" to="L13" /><trip id="bus_607" type="bus" depart="706.04" from_="L15" to="L18" /><trip id="bike_489" type="bike" depart="713.61" from_="L13" to="L15" /><trip id="pkw_236" type="pkw" depart="713.74" from_="L18" to="L13" /><trip id="bike_372" type="bike" depart="714.76" from_="L13" to="L16" /><trip id="pkw_380" type="pkw" depart="716.74" from_="L16" to="L18" /><trip id="bike_989" type="bike" depart="724.03" from_="L14" to="L18" /><trip id="bike_305" type="bike" depart="725.88" from_="L14" to="L13" /><trip id="bike_587" type="bike" depart="729.96" from_="L15" to="L16" /><trip id="scooter_827" type="scooter" depart="730.24" from_="L16" to="L13" /><trip id="scooter_453" type="scooter" depart="735.83" from_="L13" to="L16" /><trip id="bike_905" type="bike" depart="736.51" from_="L16" to="L14" /><trip id="pkw_875" type="pkw" depart="741.38" from_="L15" to="L18" /><trip id="bike_888" type="bike" depart="747.29" from_="L14" to="L13" /><trip id="pkw_633" type="pkw" depart="748.31" from_="L15" to="L17" /><trip id="bike_647" type="bike" depart="752.36" from_="L18" to="L16" /><trip id="bike_885" type="bike" depart="754.71" from_="L17" to="L13" /><trip id="scooter_769" type="scooter" depart="760.87" from_="L16" to="L15" /><trip id="bike_440" type="bike" depart="763.65" from_="L17" to="L16" /><trip id="bus_746" type="bus" depart="765.88" from_="L16" to="L15" /><trip id="bike_777" type="bike" depart="766.77" from_="L14" to="L18" /><trip id="bike_22" type="bike" depart="769.23" from_="L13" to="L16" /><trip id="pkw_566" type="pkw" depart="769.37" from_="L15" to="L18" /><trip id="pkw_256" type="pkw" depart="771.85" from_="L15" to="L16" /><trip id="pkw_667" type="pkw" depart="775.73" from_="L13" to="L16" /><trip id="bike_716" type="bike" depart="780.74" from_="L16" to="L18" /><trip id="bus_14" type="bus" depart="784.14" from_="L15" to="L13" /><trip id="bus_737" type="bus" depart="784.44" from_="L17" to="L18" /><trip id="bike_277" type="bike" depart="785.08" from_="L17" to="L16" /><trip id="pkw_95" type="pkw" depart="785.35" from_="L18" to="L13" /><trip id="bus_867" type="bus" depart="785.48" from_="L16" to="L13" /><trip id="bus_515" type="bus" depart="788.95" from_="L18" to="L13" /><trip id="bike_762" type="bike" depart="790.45" from_="L16" to="L13" /><trip id="bus_183" type="bus" depart="799.5" from_="L16" to="L13" /><trip id="scooter_981" type="scooter" depart="801.73" from_="L18" to="L14" /><trip id="bike_755" type="bike" depart="801.8" from_="L18" to="L17" /><trip id="bike_306" type="bike" depart="803.42" from_="L16" to="L15" /><trip id="bike_230" type="bike" depart="805.77" from_="L15" to="L13" /><trip id="bike_336" type="bike" depart="812.41" from_="L14" to="L17" /><trip id="bike_246" type="bike" depart="817.81" from_="L18" to="L17" /><trip id="bike_804" type="bike" depart="818.22" from_="L17" to="L14" /><trip id="bike_944" type="bike" depart="818.46" from_="L14" to="L18" /><trip id="bike_836" type="bike" depart="822.04" from_="L16" to="L18" /><trip id="bus_501" type="bus" depart="822.43" from_="L16" to="L13" /><trip id="bus_898" type="bus" depart="823.43" from_="L14" to="L15" /><trip id="bike_729" type="bike" depart="829.43" from_="L17" to="L13" /><trip id="bus_67" type="bus" depart="836.52" from_="L18" to="L17" /><trip id="bus_976" type="bus" depart="837.96" from_="L15" to="L17" /><trip id="pkw_351" type="pkw" depart="838.51" from_="L16" to="L13" /><trip id="bus_381" type="bus" depart="843.39" from_="L14" to="L16" /><trip id="bus_454" type="bus" depart="843.85" from_="L13" to="L18" /><trip id="pkw_980" type="pkw" depart="848.45" from_="L17" to="L14" /><trip id="pkw_701" type="pkw" depart="850.44" from_="L17" to="L13" /><trip id="bike_491" type="bike" depart="857.98" from_="L14" to="L16" /><trip id="bus_527" type="bus" depart="859.48" from_="L15" to="L14" /><trip id="bus_499" type="bus" depart="872.47" from_="L17" to="L15" /><trip id="bike_354" type="bike" depart="874.86" from_="L17" to="L15" /><trip id="pkw_409" type="pkw" depart="877.35" from_="L17" to="L16" /><trip id="scooter_858" type="scooter" depart="879.26" from_="L14" to="L15" /><trip id="bike_39" type="bike" depart="882.19" from_="L13" to="L14" /><trip id="bus_663" type="bus" depart="888.33" from_="L13" to="L17" /><trip id="scooter_591" type="scooter" depart="890.59" from_="L17" to="L16" /><trip id="bus_956" type="bus" depart="891.96" from_="L18" to="L14" /><trip id="bus_452" type="bus" depart="893.16" from_="L17" to="L14" /><trip id="bus_553" type="bus" depart="894.41" from_="L16" to="L14" /><trip id="bus_678" type="bus" depart="897.39" from_="L18" to="L15" /><trip id="bike_18" type="bike" depart="903.17" from_="L16" to="L14" /><trip id="bus_845" type="bus" depart="909.04" from_="L17" to="L14" /><trip id="bike_480" type="bike" depart="911.63" from_="L13" to="L16" /><trip id="bike_512" type="bike" depart="913.6" from_="L14" to="L18" /><trip id="bike_950" type="bike" depart="917.24" from_="L17" to="L18" /><trip id="bike_852" type="bike" depart="921.7" from_="L17" to="L16" /><trip id="bus_73" type="bus" depart="923.0" from_="L18" to="L17" /><trip id="pkw_25" type="pkw" depart="928.82" from_="L18" to="L13" /><trip id="bike_232" type="bike" depart="929.44" from_="L14" to="L17" /><trip id="scooter_403" type="scooter" depart="930.03" from_="L17" to="L13" /><trip id="bike_357" type="bike" depart="932.3" from_="L17" to="L18" /><trip id="bus_879" type="bus" depart="944.64" from_="L16" to="L13" /><trip id="scooter_918" type="scooter" depart="944.7" from_="L13" to="L17" /><trip id="bike_593" type="bike" depart="944.86" from_="L16" to="L14" /><trip id="bike_366" type="bike" depart="950.45" from_="L18" to="L16" /><trip id="bike_891" type="bike" depart="957.73" from_="L13" to="L16" /><trip id="scooter_834" type="scooter" depart="961.16" from_="L13" to="L18" /><trip id="bike_959" type="bike" depart="978.37" from_="L15" to="L16" /><trip id="bike_828" type="bike" depart="987.45" from_="L14" to="L15" /><trip id="bus_854" type="bus" depart="993.59" from_="L13" to="L18" /><trip id="bike_456" type="bike" depart="994.32" from_="L14" to="L13" /><trip id="pkw_933" type="pkw" depart="998.3" from_="L17" to="L14" /><trip id="bike_570" type="bike" depart="1001.42" from_="L13" to="L18" /><trip id="bus_390" type="bus" depart="1002.12" from_="L15" to="L18" /><trip id="pkw_243" type="pkw" depart="1010.69" from_="L17" to="L14" /><trip id="pkw_443" type="pkw" depart="1017.8" from_="L17" to="L18" /><trip id="bus_954" type="bus" depart="1024.79" from_="L14" to="L18" /><trip id="scooter_118" type="scooter" depart="1025.69" from_="L13" to="L17" /><trip id="bike_361" type="bike" depart="1030.33" from_="L16" to="L18" /><trip id="scooter_510" type="scooter" depart="1034.12" from_="L17" to="L18" /><trip id="bike_263" type="bike" depart="1034.44" from_="L13" to="L17" /><trip id="bike_865" type="bike" depart="1043.47" from_="L17" to="L16" /><trip id="bike_987" type="bike" depart="1046.86" from_="L18" to="L14" /><trip id="bike_940" type="bike" depart="1051.19" from_="L18" to="L14" /><trip id="bike_741" type="bike" depart="1051.48" from_="L13" to="L16" /><trip id="bike_394" type="bike" depart="1054.2" from_="L13" to="L16" /><trip id="bike_318" type="bike" depart="1058.41" from_="L15" to="L14" /><trip id="bus_450" type="bus" depart="1064.3" from_="L13" to="L15" /><trip id="bus_0" type="bus" depart="1068.36" from_="L18" to="L17" /><trip id="bike_791" type="bike" depart="1069.01" from_="L16" to="L14" /><trip id="bike_8" type="bike" depart="1069.47" from_="L15" to="L17" /><trip id="bus_30" type="bus" depart="1076.28" from_="L18" to="L15" /><trip id="pkw_455" type="pkw" depart="1076.34" from_="L18" to="L14" /><trip id="bike_657" type="bike" depart="1081.97" from_="L14" to="L13" /><trip id="bike_252" type="bike" depart="1089.48" from_="L14" to="L13" /><trip id="bus_508" type="bus" depart="1091.71" from_="L16" to="L18" /><trip id="bike_63" type="bike" depart="1093.52" from_="L17" to="L15" /><trip id="pkw_188" type="pkw" depart="1101.84" from_="L16" to="L13" /><trip id="scooter_37" type="scooter" depart="1107.54" from_="L13" to="L16" /><trip id="bike_206" type="bike" depart="1107.59" from_="L15" to="L18" /><trip id="bus_530" type="bus" depart="1108.9" from_="L13" to="L16" /><trip id="bike_136" type="bike" depart="1108.96" from_="L18" to="L13" /><trip id="scooter_327" type="scooter" depart="1109.09" from_="L16" to="L13" /><trip id="bus_573" type="bus" depart="1109.66" from_="L13" to="L14" /><trip id="bus_273" type="bus" depart="1111.35" from_="L13" to="L18" /><trip id="bike_286" type="bike" depart="1126.12" from_="L14" to="L18" /><trip id="bike_62" type="bike" depart="1126.37" from_="L14" to="L15" /><trip id="bike_172" type="bike" depart="1126.66" from_="L17" to="L15" /><trip id="scooter_521" type="scooter" depart="1139.03" from_="L18" to="L17" /><trip id="bus_420" type="bus" depart="1144.39" from_="L17" to="L14" /><trip id="bus_363" type="bus" depart="1144.76" from_="L15" to="L17" /><trip id="bike_907" type="bike" depart="1147.33" from_="L16" to="L13" /><trip id="bus_620" type="bus" depart="1150.01" from_="L15" to="L16" /><trip id="bus_719" type="bus" depart="1150.75" from_="L15" to="L13" /><trip id="scooter_373" type="scooter" depart="1152.21" from_="L15" to="L18" /><trip id="bike_244" type="bike" depart="1156.88" from_="L18" to="L13" /><trip id="bus_460" type="bus" depart="1159.96" from_="L16" to="L18" /><trip id="bus_141" type="bus" depart="1164.69" from_="L18" to="L14" /><trip id="bike_34" type="bike" depart="1166.51" from_="L14" to="L17" /><trip id="bike_514" type="bike" depart="1168.22" from_="L13" to="L18" /><trip id="bus_147" type="bus" depart="1171.4" from_="L18" to="L15" /><trip id="bike_833" type="bike" depart="1172.53" from_="L14" to="L13" /><trip id="bike_568" type="bike" depart="1172.88" from_="L18" to="L14" /><trip id="scooter_486" type="scooter" depart="1182.51" from_="L18" to="L14" /><trip id="bike_999" type="bike" depart="1182.92" from_="L14" to="L15" /><trip id="bus_862" type="bus" depart="1186.51" from_="L18" to="L13" /><trip id="bus_643" type="bus" depart="1188.17" from_="L17" to="L16" /><trip id="bike_917" type="bike" depart="1190.04" from_="L13" to="L16" /><trip id="bus_299" type="bus" depart="1191.25" from_="L17" to="L15" /><trip id="bike_534" type="bike" depart="1194.27" from_="L15" to="L16" /><trip id="pkw_313" type="pkw" depart="1198.35" from_="L17" to="L15" /><trip id="bike_296" type="bike" depart="1203.42" from_="L18" to="L14" /><trip id="bike_994" type="bike" depart="1205.62" from_="L17" to="L13" /><trip id="bus_666" type="bus" depart="1209.59" from_="L15" to="L14" /><trip id="bike_406" type="bike" depart="1209.7" from_="L18" to="L16" /><trip id="bike_196" type="bike" depart="1222.11" from_="L18" to="L17" /><trip id="bike_533" type="bike" depart="1224.43" from_="L18" to="L17" /><trip id="bus_442" type="bus" depart="1230.9" from_="L13" to="L14" /><trip id="bike_772" type="bike" depart="1231.29" from_="L18" to="L13" /><trip id="bus_204" type="bus" depart="1234.63" from_="L16" to="L17" /><trip id="bus_718" type="bus" depart="1234.94" from_="L13" to="L17" /><trip id="pkw_979" type="pkw" depart="1238.7" from_="L17" to="L16" /><trip id="bike_844" type="bike" depart="1254.67" from_="L17" to="L16" /><trip id="bike_742" type="bike" depart="1261.15" from_="L15" to="L17" /><trip id="bike_301" type="bike" depart="1263.14" from_="L15" to="L18" /><trip id="bus_487" type="bus" depart="1266.85" from_="L15" to="L17" /><trip id="bus_427" type="bus" depart="1270.55" from_="L13" to="L14" /><trip id="bus_182" type="bus" depart="1273.7" from_="L15" to="L17" /><trip id="bus_926" type="bus" depart="1276.81" from_="L13" to="L16" /><trip id="bus_55" type="bus" depart="1278.68" from_="L15" to="L17" /><trip id="bike_740" type="bike" depart="1281.97" from_="L17" to="L16" /><trip id="bike_580" type="bike" depart="1282.95" from_="L13" to="L17" /><trip id="bus_423" type="bus" depart="1283.49" from_="L13" to="L14" /><trip id="bus_736" type="bus" depart="1285.8" from_="L16" to="L13" /><trip id="bike_841" type="bike" depart="1290.04" from_="L16" to="L18" /><trip id="pkw_946" type="pkw" depart="1291.07" from_="L18" to="L17" /><trip id="scooter_245" type="scooter" depart="1295.58" from_="L15" to="L17" /><trip id="bike_334" type="bike" depart="1299.36" from_="L16" to="L13" /><trip id="bus_571" type="bus" depart="1300.92" from_="L17" to="L16" /><trip id="bike_7" type="bike" depart="1304.61" from_="L17" to="L15" /><trip id="bus_107" type="bus" depart="1306.12" from_="L18" to="L13" /><trip id="scooter_371" type="scooter" depart="1309.41" from_="L18" to="L16" /><trip id="bike_477" type="bike" depart="1309.87" from_="L14" to="L17" /><trip id="bus_957" type="bus" depart="1311.61" from_="L14" to="L13" /><trip id="bus_395" type="bus" depart="1315.23" from_="L13" to="L16" /><trip id="bike_919" type="bike" depart="1316.73" from_="L16" to="L18" /><trip id="pkw_661" type="pkw" depart="1320.12" from_="L14" to="L16" /><trip id="bike_916" type="bike" depart="1323.45" from_="L16" to="L17" /><trip id="bike_459" type="bike" depart="1325.2" from_="L15" to="L18" /><trip id="bike_185" type="bike" depart="1333.69" from_="L18" to="L13" /><trip id="bike_41" type="bike" depart="1334.78" from_="L13" to="L17" /><trip id="bus_111" type="bus" depart="1338.6" from_="L14" to="L18" /><trip id="bike_818" type="bike" depart="1340.47" from_="L14" to="L13" /><trip id="bus_320" type="bus" depart="1340.94" from_="L17" to="L15" /><trip id="pkw_953" type="pkw" depart="1341.1" from_="L16" to="L13" /><trip id="bike_754" type="bike" depart="1342.5" from_="L18" to="L17" /><trip id="bus_924" type="bus" depart="1342.95" from_="L13" to="L17" /><trip id="pkw_328" type="pkw" depart="1343.68" from_="L18" to="L14" /><trip id="bike_930" type="bike" depart="1349.17" from_="L17" to="L16" /><trip id="bike_943" type="bike" depart="1349.82" from_="L14" to="L13" /><trip id="bike_803" type="bike" depart="1353.31" from_="L16" to="L13" /><trip id="scooter_70" type="scooter" depart="1358.52" from_="L17" to="L18" /><trip id="bus_899" type="bus" depart="1361.39" from_="L14" to="L15" /><trip id="pkw_627" type="pkw" depart="1361.42" from_="L16" to="L18" /><trip id="scooter_684" type="scooter" depart="1362.02" from_="L13" to="L17" /><trip id="pkw_86" type="pkw" depart="1367.7" from_="L14" to="L18" /><trip id="bus_506" type="bus" depart="1372.28" from_="L16" to="L17" /><trip id="bike_937" type="bike" depart="1374.85" from_="L15" to="L16" /><trip id="bike_785" type="bike" depart="1376.64" from_="L15" to="L14" /><trip id="bike_50" type="bike" depart="1383.31" from_="L16" to="L18" /><trip id="bike_214" type="bike" depart="1385.98" from_="L14" to="L17" /><trip id="bus_88" type="bus" depart="1386.01" from_="L16" to="L17" /><trip id="bus_247" type="bus" depart="1387.2" from_="L16" to="L18" /><trip id="bus_410" type="bus" depart="1387.32" from_="L15" to="L13" /><trip id="bus_405" type="bus" depart="1387.43" from_="L16" to="L14" /><trip id="bike_45" type="bike" depart="1389.46" from_="L16" to="L14" /><trip id="scooter_83" type="scooter" depart="1392.55" from_="L13" to="L17" /><trip id="pkw_397" type="pkw" depart="1393.83" from_="L16" to="L13" /><trip id="bike_213" type="bike" depart="1394.21" from_="L17" to="L18" /><trip id="bike_386" type="bike" depart="1399.05" from_="L13" to="L18" /><trip id="bike_963" type="bike" depart="1403.76" from_="L15" to="L18" /><trip id="bus_733" type="bus" depart="1413.1" from_="L17" to="L16" /><trip id="bus_641" type="bus" depart="1414.75" from_="L17" to="L16" /><trip id="bike_965" type="bike" depart="1417.88" from_="L17" to="L15" /><trip id="pkw_151" type="pkw" depart="1427.46" from_="L16" to="L18" /><trip id="bike_949" type="bike" depart="1427.72" from_="L13" to="L18" /><trip id="bike_502" type="bike" depart="1428.89" from_="L13" to="L15" /><trip id="bike_374"