<?xml version='1.0' encoding='utf-8'?>
<routes><vType id="pkw" vClass="passenger" accel="2.6" decel="4.5" length="5" maxSpeed="30" /><vType id="bus" vClass="bus" accel="1.3" decel="2.5" length="12" maxSpeed="20" /><vType id="scooter" vClass="motorcycle" accel="3.0" decel="4.0" length="2" maxSpeed="25" /><vType id="bike" vClass="bicycle" accel="1.0" decel="1.5" length="1.8" maxSpeed="15" /><trip id="bus_79" type="bus" depart="3.33" from_="L18" to="L13" /><trip id="bike_872" type="bike" depart="7.42" from_="L14" to="L15" /><trip id="scooter_428" type="scooter" depart="7.52" from_="L14" to="L13" /><trip id="scooter_83" type="scooter" depart="18.0" from_="L17" to="L13" /><trip id="scooter_405" type="scooter" depart="20.51" from_="L17" to="L14" /><trip id="pkw_433" type="pkw" depart="21.78" from_="L17" to="L16" /><trip id="scooter_383" type="scooter" depart="23.89" from_="L17" to="L14" /><trip id="bike_836" type="bike" depart="29.45" from_="L15" to="L18" /><trip id="bus_445" type="bus" depart="35.94" from_="L15" to="L13" /><trip id="bus_661" type="bus" depart="40.47" from_="L14" to="L13" /><trip id="bike_176" type="bike" depart="45.26" from_="L13" to="L17" /><trip id="bus_291" type="bus" depart="46.04" from_="L18" to="L16" /><trip id="scooter_705" type="scooter" depart="46.22" from_="L18" to="L17" /><trip id="pkw_840" type="pkw" depart="51.17" from_="L13" to="L15" /><trip id="scooter_35" type="scooter" depart="57.4" from_="L13" to="L18" /><trip id="pkw_12" type="pkw" depart="60.46" from_="L13" to="L14" /><trip id="bike_532" type="bike" depart="63.88" from_="L18" to="L16" /><trip id="scooter_126" type="scooter" depart="65.76" from_="L16" to="L17" /><trip id="scooter_240" type="scooter" depart="72.03" from_="L13" to="L14" /><trip id="bike_510" type="bike" depart="72.14" from_="L14" to="L18" /><trip id="bus_500" type="bus" depart="72.26" from_="L13" to="L14" /><trip id="bike_438" type="bike" depart="78.11" from_="L18" to="L17" /><trip id="scooter_623" type="scooter" depart="79.74" from_="L15" to="L18" /><trip id="scooter_897" type="scooter" depart="81.11" from_="L17" to="L13" /><trip id="scooter_213" type="scooter" depart="86.3" from_="L16" to="L18" /><trip id="scooter_789" type="scooter" depart="93.14" from_="L17" to="L15" /><trip id="scooter_533" type="scooter" depart="93.4" from_="L17" to="L18" /><trip id="scooter_256" type="scooter" depart="93.45" from_="L14" to="L17" /><trip id="bus_112" type="bus" depart="95.07" from_="L17" to="L16" /><trip id="scooter_710" type="scooter" depart="112.34" from_="L17" to="L13" /><trip id="scooter_670" type="scooter" depart="113.78" from_="L17" to="L13" /><trip id="scooter_396" type="scooter" depart="120.13" from_="L18" to="L16" /><trip id="scooter_169" type="scooter" depart="121.73" from_="L13" to="L15" /><trip id="bike_40" type="bike" depart="122.66" from_="L17" to="L13" /><trip id="bus_32" type="bus" depart="123.0" from_="L18" to="L14" /><trip id="scooter_363" type="scooter" depart="134.99" from_="L14" to="L13" /><trip id="bike_149" type="bike" depart="135.78" from_="L14" to="L17" /><trip id="bike_512" type="bike" depart="136.37" from_="L15" to="L18" /><trip id="bus_589" type="bus" depart="137.17" from_="L18" to="L13" /><trip id="bus_397" type="bus" depart="140.12" from_="L15" to="L16" /><trip id="scooter_555" type="scooter" depart="145.94" from_="L13" to="L16" /><trip id="bike_20" type="bike" depart="147.71" from_="L15" to="L14" /><trip id="scooter_577" type="scooter" depart="150.55" from_="L14" to="L16" /><trip id="scooter_966" type="scooter" depart="150.61" from_="L16" to="L14" /><trip id="bike_427" type="bike" depart="153.56" from_="L15" to="L18" /><trip id="scooter_983" type="scooter" depart="155.82" from_="L17" to="L18" /><trip id="pkw_314" type="pkw" depart="159.76" from_="L14" to="L15" /><trip id="scooter_618" type="scooter" depart="165.98" from_="L16" to="L13" /><trip id="scooter_889" type="scooter" depart="166.14" from_="L15" to="L13" /><trip id="bike_975" type="bike" depart="170.01" from_="L17" to="L14" /><trip id="bus_940" type="bus" depart="173.94" from_="L15" to="L17" /><trip id="scooter_33" type="scooter" depart="178.64" from_="L15" to="L16" /><trip id="bike_443" type="bike" depart="181.44" from_="L13" to="L14" /><trip id="scooter_10" type="scooter" depart="181.88" from_="L13" to="L15" /><trip id="pkw_611" type="pkw" depart="188.59" from_="L13" to="L18" /><trip id="bike_925" type="bike" depart="194.91" from_="L18" to="L16" /><trip id="bus_148" type="bus" depart="198.79" from_="L16" to="L15" /><trip id="scooter_938" type="scooter" depart="201.55" from_="L18" to="L14" /><trip id="bus_393" type="bus" depart="202.29" from_="L16" to="L14" /><trip id="scooter_602" type="scooter" depart="202.98" from_="L13" to="L17" /><trip id="scooter_252" type="scooter" depart="209.33" from_="L16" to="L13" /><trip id="scooter_218" type="scooter" depart="209.68" from_="L14" to="L16" /><trip id="bike_729" type="bike" depart="212.8" from_="L14" to="L15" /><trip id="scooter_785" type="scooter" depart="216.96" from_="L16" to="L18" /><trip id="bus_509" type="bus" depart="220.34" from_="L17" to="L15" /><trip id="scooter_628" type="scooter" depart="221.72" from_="L13" to="L18" /><trip id="scooter_631" type="scooter" depart="222.42" from_="L16" to="L17" /><trip id="scooter_544" type="scooter" depart="224.65" from_="L14" to="L17" /><trip id="scooter_644" type="scooter" depart="225.33" from_="L14" to="L13" /><trip id="pkw_770" type="pkw" depart="232.03" from_="L13" to="L16" /><trip id="pkw_688" type="pkw" depart="242.48" from_="L14" to="L13" /><trip id="pkw_573" type="pkw" depart="243.11" from_="L18" to="L14" /><trip id="bus_799" type="bus" depart="246.4" from_="L15" to="L17" /><trip id="bus_786" type="bus" depart="249.09" from_="L18" to="L16" /><trip id="scooter_421" type="scooter" depart="256.19" from_="L16" to="L13" /><trip id="bike_302" type="bike" depart="256.97" from_="L15" to="L18" /><trip id="bus_945" type="bus" depart="259.06" from_="L14" to="L18" /><trip id="bus_994" type="bus" depart="259.19" from_="L16" to="L17" /><trip id="bus_456" type="bus" depart="261.14" from_="L13" to="L18" /><trip id="scooter_692" type="scooter" depart="268.76" from_="L14" to="L18" /><trip id="scooter_311" type="scooter" depart="270.15" from_="L16" to="L15" /><trip id="bus_120" type="bus" depart="271.81" from_="L18" to="L17" /><trip id="pkw_399" type="pkw" depart="278.34" from_="L14" to="L18" /><trip id="scooter_653" type="scooter" depart="291.28" from_="L18" to="L13" /><trip id="scooter_200" type="scooter" depart="293.52" from_="L16" to="L18" /><trip id="scooter_228" type="scooter" depart="302.93" from_="L13" to="L14" /><trip id="scooter_37" type="scooter" depart="307.5" from_="L18" to="L13" /><trip id="scooter_290" type="scooter" depart="315.47" from_="L18" to="L14" /><trip id="bike_787" type="bike" depart="323.06" from_="L13" to="L15" /><trip id="bike_143" type="bike" depart="325.11" from_="L18" to="L15" /><trip id="pkw_134" type="pkw" depart="325.98" from_="L16" to="L14" /><trip id="bike_809" type="bike" depart="326.01" from_="L13" to="L17" /><trip id="pkw_412" type="pkw" depart="328.25" from_="L17" to="L15" /><trip id="bus_46" type="bus" depart="331.79" from_="L14" to="L17" /><trip id="scooter_704" type="scooter" depart="334.24" from_="L13" to="L16" /><trip id="pkw_695" type="pkw" depart="334.96" from_="L15" to="L14" /><trip id="bike_190" type="bike" depart="336.37" from_="L18" to="L15" /><trip id="bike_970" type="bike" depart="342.22" from_="L17" to="L14" /><trip id="scooter_71" type="scooter" depart="342.88" from_="L14" to="L17" /><trip id="scooter_528" type="scooter" depart="344.8" from_="L17" to="L15" /><trip id="bike_741" type="bike" depart="349.04" from_="L16" to="L18" /><trip id="bike_401" type="bike" depart="350.75" from_="L13" to="L16" /><trip id="scooter_309" type="scooter" depart="367.64" from_="L18" to="L17" /><trip id="bike_511" type="bike" depart="369.29" from_="L15" to="L17" /><trip id="scooter_874" type="scooter" depart="369.48" from_="L14" to="L15" /><trip id="bike_566" type="bike" depart="375.09" from_="L16" to="L18" /><trip id="bike_520" type="bike" depart="375.14" from_="L14" to="L15" /><trip id="bike_259" type="bike" depart="378.09" from_="L15" to="L17" /><trip id="scooter_891" type="scooter" depart="379.92" from_="L17" to="L13" /><trip id="scooter_419" type="scooter" depart="383.92" from_="L15" to="L17" /><trip id="scooter_597" type="scooter" depart="384.33" from_="L18" to="L16" /><trip id="bike_771" type="bike" depart="386.29" from_="L17" to="L15" /><trip id="bike_935" type="bike" depart="386.83" from_="L18" to="L17" /><trip id="bike_690" type="bike" depart="389.54" from_="L16" to="L13" /><trip id="bike_269" type="bike" depart="392.38" from_="L14" to="L17" /><trip id="bike_409" type="bike" depart="395.6" from_="L14" to="L17" /><trip id="bike_416" type="bike" depart="398.45" from_="L18" to="L15" /><trip id="bus_803" type="bus" depart="402.16" from_="L15" to="L13" /><trip id="pkw_450" type="pkw" depart="402.86" from_="L15" to="L14" /><trip id="bus_978" type="bus" depart="405.46" from_="L17" to="L14" /><trip id="scooter_378" type="scooter" depart="412.22" from_="L18" to="L14" /><trip id="bike_431" type="bike" depart="422.95" from_="L17" to="L14" /><trip id="bus_171" type="bus" depart="425.88" from_="L14" to="L18" /><trip id="bike_340" type="bike" depart="426.74" from_="L15" to="L14" /><trip id="scooter_636" type="scooter" depart="429.03" from_="L16" to="L17" /><trip id="bike_562" type="bike" depart="432.74" from_="L16" to="L15" /><trip id="bike_264" type="bike" depart="433.95" from_="L17" to="L15" /><trip id="scooter_747" type="scooter" depart="438.57" from_="L13" to="L14" /><trip id="scooter_211" type="scooter" depart="438.85" from_="L14" to="L16" /><trip id="pkw_407" type="pkw" depart="439.57" from_="L15" to="L13" /><trip id="bike_271" type="bike" depart="458.41" from_="L13" to="L16" /><trip id="scooter_923" type="scooter" depart="463.2" from_="L13" to="L15" /><trip id="bike_460" type="bike" depart="465.41" from_="L14" to="L16" /><trip id="scooter_85" type="scooter" depart="471.26" from_="L15" to="L18" /><trip id="scooter_293" type="scooter" depart="483.05" from_="L16" to="L14" /><trip id="pkw_222" type="pkw" depart="483.31" from_="L16" to="L17" /><trip id="bike_248" type="bike" depart="483.94" from_="L16" to="L14" /><trip id="scooter_285" type="scooter" depart="488.08" from_="L17" to="L15" /><trip id="scooter_49" type="scooter" depart="489.27" from_="L13" to="L14" /><trip id="pkw_898" type="pkw" depart="490.44" from_="L16" to="L15" /><trip id="bike_726" type="bike" depart="493.76" from_="L17" to="L16" /><trip id="bike_389" type="bike" depart="499.8" from_="L18" to="L17" /><trip id="bike_882" type="bike" depart="507.06" from_="L17" to="L16" /><trip id="scooter_539" type="scooter" depart="510.73" from_="L17" to="L16" /><trip id="bus_246" type="bus" depart="526.98" from_="L14" to="L16" /><trip id="bus_591" type="bus" depart="527.73" from_="L17" to="L14" /><trip id="bike_626" type="bike" depart="531.34" from_="L18" to="L16" /><trip id="bus_730" type="bus" depart="534.11" from_="L16" to="L18" /><trip id="bike_761" type="bike" depart="541.65" from_="L17" to="L14" /><trip id="scooter_687" type="scooter" depart="542.01" from_="L18" to="L15" /><trip id="scooter_153" type="scooter" depart="543.51" from_="L13" to="L14" /><trip id="scooter_50" type="scooter" depart="548.1" from_="L15" to="L14" /><trip id="scooter_161" type="scooter" depart="558.6" from_="L16" to="L14" /><trip id="bike_808" type="bike" depart="558.91" from_="L16" to="L14" /><trip id="pkw_963" type="pkw" depart="561.38" from_="L15" to="L17" /><trip id="bike_275" type="bike" depart="564.21" from_="L17" to="L13" /><trip id="pkw_721" type="pkw" depart="567.33" from_="L15" to="L18" /><trip id="pkw_89" type="pkw" depart="568.78" from_="L18" to="L14" /><trip id="bike_437" type="bike" depart="573.23" from_="L18" to="L17" /><trip id="scooter_39" type="scooter" depart="576.3" from_="L13" to="L14" /><trip id="scooter_280" type="scooter" depart="576.68" from_="L17" to="L13" /><trip id="bus_239" type="bus" depart="582.91" from_="L15" to="L16" /><trip id="bus_720" type="bus" depart="585.09" from_="L18" to="L17" /><trip id="pkw_270" type="pkw" depart="587.98" from_="L15" to="L14" /><trip id="bike_106" type="bike" depart="596.27" from_="L17" to="L14" /><trip id="pkw_888" type="pkw" depart="598.34" from_="L15" to="L17" /><trip id="bike_649" type="bike" depart="598.37" from_="L16" to="L14" /><trip id="bike_4" type="bike" depart="612.54" from_="L16" to="L17" /><trip id="pkw_2" type="pkw" depart="612.79" from_="L14" to="L18" /><trip id="bus_843" type="bus" depart="613.1" from_="L14" to="L16" /><trip id="bike_538" type="bike" depart="616.55" from_="L15" to="L14" /><trip id="bus_284" type="bus" depart="622.97" from_="L15" to="L16" /><trip id="scooter_981" type="scooter" depart="625.21" from_="L17" to="L18" /><trip id="bike_278" type="bike" depart="625.94" from_="L16" to="L17" /><trip id="scooter_769" type="scooter" depart="636.03" from_="L16" to="L15" /><trip id="bike_498" type="bike" depart="637.54" from_="L15" to="L16" /><trip id="scooter_654" type="scooter" depart="637.79" from_="L13" to="L14" /><trip id="pkw_648" type="pkw" depart="639.89" from_="L18" to="L17" /><trip id="bike_452" type="bike" depart="640.11" from_="L14" to="L18" /><trip id="bus_155" type="bus" depart="640.28" from_="L18" to="L14" /><trip id="bus_881" type="bus" depart="642.86" from_="L18" to="L16" /><trip id="pkw_914" type="pkw" depart="642.87" from_="L16" to="L14" /><trip id="pkw_182" type="pkw" depart="645.73" from_="L17" to="L13" /><trip id="bike_684" type="bike" depart="648.1" from_="L14" to="L13" /><trip id="scooter_603" type="scooter" depart="648.9" from_="L17" to="L16" /><trip id="scooter_175" type="scooter" depart="651.47" from_="L14" to="L16" /><trip id="pkw_84" type="pkw" depart="655.48" from_="L14" to="L16" /><trip id="scooter_559" type="scooter" depart="657.13" from_="L16" to="L18" /><trip id="pkw_387" type="pkw" depart="664.87" from_="L17" to="L14" /><trip id="bike_760" type="bike" depart="667.17" from_="L17" to="L16" /><trip id="scooter_521" type="scooter" depart="667.86" from_="L16" to="L14" /><trip id="pkw_82" type="pkw" depart="668.5" from_="L16" to="L17" /><trip id="bus_186" type="bus" depart="670.74" from_="L13" to="L14" /><trip id="scooter_652" type="scooter" depart="672.76" from_="L14" to="L13" /><trip id="scooter_551" type="scooter" depart="675.78" from_="L14" to="L13" /><trip id="scooter_567" type="scooter" depart="689.83" from_="L15" to="L13" /><trip id="pkw_894" type="pkw" depart="690.11" from_="L17" to="L13" /><trip id="scooter_767" type="scooter" depart="690.78" from_="L13" to="L15" /><trip id="scooter_353" type="scooter" depart="696.83" from_="L13" to="L15" /><trip id="scooter_310" type="scooter" depart="697.69" from_="L16" to="L18" /><trip id="bike_114" type="bike" depart="699.76" from_="L18" to="L17" /><trip id="scooter_969" type="scooter" depart="700.89" from_="L17" to="L15" /><trip id="bike_905" type="bike" depart="702.96" from_="L18" to="L16" /><trip id="pkw_755" type="pkw" depart="707.07" from_="L15" to="L16" /><trip id="pkw_998" type="pkw" depart="707.6" from_="L18" to="L15" /><trip id="bike_467" type="bike" depart="714.35" from_="L15" to="L14" /><trip id="pkw_449" type="pkw" depart="716.18" from_="L13" to="L18" /><trip id="bus_475" type="bus" depart="717.24" from_="L16" to="L13" /><trip id="scooter_156" type="scooter" depart="723.54" from_="L18" to="L16" /><trip id="scooter_939" type="scooter" depart="727.16" from_="L18" to="L15" /><trip id="bus_728" type="bus" depart="729.51" from_="L15" to="L13" /><trip id="bus_547" type="bus" depart="733.67" from_="L14" to="L13" /><trip id="scooter_883" type="scooter" depart="733.8" from_="L14" to="L16" /><trip id="bus_683" type="bus" depart="735.1" from_="L13" to="L15" /><trip id="scooter_974" type="scooter" depart="740.6" from_="L14" to="L17" /><trip id="scooter_564" type="scooter" depart="742.69" from_="L15" to="L18" /><trip id="pkw_858" type="pkw" depart="744.79" from_="L16" to="L14" /><trip id="bike_838" type="bike" depart="746.41" from_="L15" to="L16" /><trip id="pkw_671" type="pkw" depart="750.11" from_="L17" to="L18" /><trip id="bus_856" type="bus" depart="753.91" from_="L15" to="L13" /><trip id="scooter_849" type="scooter" depart="756.44" from_="L13" to="L16" /><trip id="scooter_368" type="scooter" depart="757.03" from_="L13" to="L15" /><trip id="pkw_848" type="pkw" depart="760.7" from_="L17" to="L13" /><trip id="bike_556" type="bike" depart="766.46" from_="L18" to="L14" /><trip id="bus_501" type="bus" depart="766.9" from_="L13" to="L16" /><trip id="scooter_885" type="scooter" depart="770.23" from_="L14" to="L15" /><trip id="scooter_233" type="scooter" depart="770.77" from_="L15" to="L13" /><trip id="bike_490" type="bike" depart="775.61" from_="L18" to="L17" /><trip id="bus_226" type="bus" depart="785.9" from_="L16" to="L15" /><trip id="bus_98" type="bus" depart="786.09" from_="L16" to="L18" /><trip id="bike_385" type="bike" depart="789.26" from_="L14" to="L17" /><trip id="bus_121" type="bus" depart="789.63" from_="L13" to="L15" /><trip id="bike_45" type="bike" depart="793.96" from_="L13" to="L18" /><trip id="scooter_489" type="scooter" depart="794.12" from_="L14" to="L17" /><trip id="bike_563" type="bike" depart="799.39" from_="L16" to="L18" /><trip id="scooter_984" type="scooter" depart="802.32" from_="L16" to="L13" /><trip id="scooter_51" type="scooter" depart="805.17" from_="L17" to="L16" /><trip id="bike_641" type="bike" depart="810.3" from_="L17" to="L18" /><trip id="scooter_944" type="scooter" depart="810.77" from_="L17" to="L18" /><trip id="pkw_477" type="pkw" depart="812.52" from_="L16" to="L14" /><trip id="bike_841" type="bike" depart="814.6" from_="L13" to="L18" /><trip id="scooter_536" type="scooter" depart="816.32" from_="L13" to="L18" /><trip id="scooter_258" type="scooter" depart="818.07" from_="L13" to="L14" /><trip id="bike_598" type="bike" depart="819.63" from_="L16" to="L18" /><trip id="pkw_907" type="pkw" depart="820.12" from_="L16" to="L13" /><trip id="bus_524" type="bus" depart="827.3" from_="L15" to="L17" /><trip id="bike_642" type="bike" depart="828.43" from_="L16" to="L17" /><trip id="bus_99" type="bus" depart="829.44" from_="L15" to="L13" /><trip id="scooter_514" type="scooter" depart="832.49" from_="L13" to="L18" /><trip id="scooter_765" type="scooter" depart="833.0" from_="L14" to="L17" /><trip id="bus_590" type="bus" depart="835.01" from_="L17" to="L15" /><trip id="scooter_388" type="scooter" depart="838.23" from_="L14" to="L13" /><trip id="scooter_790" type="scooter" depart="838.57" from_="L17" to="L18" /><trip id="scooter_784" type="scooter" depart="839.6" from_="L17" to="L16" /><trip id="bike_586" type="bike" depart="845.4" from_="L14" to="L15" /><trip id="scooter_956" type="scooter" depart="849.12" from_="L16" to="L18" /><trip id="scooter_753" type="scooter" depart="850.31" from_="L13" to="L14" /><trip id="scooter_916" type="scooter" depart="858.16" from_="L14" to="L18" /><trip id="bike_542" type="bike" depart="867.99" from_="L13" to="L15" /><trip id="pkw_701" type="pkw" depart="870.42" from_="L14" to="L16" /><trip id="scooter_749" type="scooter" depart="874.03" from_="L14" to="L16" /><trip id="bike_743" type="bike" depart="877.3" from_="L16" to="L17" /><trip id="bike_332" type="bike" depart="880.53" from_="L18" to="L16" /><trip id="bike_582" type="bike" depart="897.55" from_="L14" to="L16" /><trip id="scooter_442" type="scooter" depart="902.98" from_="L18" to="L15" /><trip id="bus_402" type="bus" depart="909.34" from_="L13" to="L18" /><trip id="pkw_157" type="pkw" depart="918.22" from_="L17" to="L18" /><trip id="bus_518" type="bus" depart="918.47" from_="L15" to="L18" /><trip id="scooter_108" type="scooter" depart="918.6" from_="L17" to="L18" /><trip id="scooter_317" type="scooter" depart="925.54" from_="L15" to="L17" /><trip id="scooter_632" type="scooter" depart="926.1" from_="L15" to="L18" /><trip id="pkw_920" type="pkw" depart="927.28" from_="L18" to="L17" /><trip id="scooter_8" type="scooter" depart="928.25" from_="L13" to="L15" /><trip id="scooter_815" type="scooter" depart="934.22" from_="L18" to="L13" /><trip id="scooter_880" type="scooter" depart="938.48" from_="L14" to="L18" /><trip id="pkw_34" type="pkw" depart="938.62" from_="L15" to="L18" /><trip id="scooter_647" type="scooter" depart="942.31" from_="L17" to="L13" /><trip id="bike_619" type="bike" depart="943.65" from_="L18" to="L16" /><trip id="pkw_584" type="pkw" depart="947.16" from_="L15" to="L18" /><trip id="scooter_793" type="scooter" depart="947.82" from_="L14" to="L18" /><trip id="scooter_711" type="scooter" depart="948.72" from_="L13" to="L14" /><trip id="scooter_93" type="scooter" depart="949.17" from_="L13" to="L15" /><trip id="bike_139" type="bike" depart="953.1" from_="L14" to="L17" /><trip id="scooter_341" type="scooter" depart="953.73" from_="L15" to="L16" /><trip id="bus_550" type="bus" depart="955.35" from_="L16" to="L15" /><trip id="bus_375" type="bus" depart="956.77" from_="L18" to="L16" /><trip id="pkw_307" type="pkw" depart="956.92" from_="L13" to="L17" /><trip id="scooter_876" type="scooter" depart="962.14" from_="L13" to="L17" /><trip id="scooter_429" type="scooter" depart="969.65" from_="L13" to="L14" /><trip id="scooter_377" type="scooter" depart="972.1" from_="L15" to="L17" /><trip id="scooter_151" type="scooter" depart="977.11" from_="L18" to="L17" /><trip id="bus_694" type="bus" depart="991.49" from_="L15" to="L18" /><trip id="scooter_154" type="scooter" depart="997.95" from_="L17" to="L18" /><trip id="bus_708" type="bus" depart="999.16" from_="L13" to="L14" /><trip id="bus_734" type="bus" depart="1005.65" from_="L13" to="L15" /><trip id="scooter_707" type="scooter" depart="1014.26" from_="L17" to="L13" /><trip id="scooter_406" type="scooter" depart="1016.71" from_="L17" to="L14" /><trip id="scooter_788" type="scooter" depart="1017.03" from_="L18" to="L14" /><trip id="pkw_65" type="pkw" depart="1029.28" from_="L18" to="L14" /><trip id="bus_989" type="bus" depart="1039.49" from_="L18" to="L17" /><trip id="scooter_380" type="scooter" depart="1045.7" from_="L16" to="L17" /><trip id="bike_635" type="bike" depart="1048.25" from_="L17" to="L13" /><trip id="bus_253" type="bus" depart="1051.74" from_="L13" to="L17" /><trip id="scooter_36" type="scooter" depart="1054.46" from_="L15" to="L13" /><trip id="scooter_173" type="scooter" depart="1063.02" from_="L17" to="L15" /><trip id="bike_709" type="bike" depart="1074.65" from_="L13" to="L16" /><trip id="bike_21" type="bike" depart="1078.12" from_="L15" to="L13" /><trip id="bus_924" type="bus" depart="1080.89" from_="L13" to="L18" /><trip id="bike_23" type="bike" depart="1083.03" from_="L15" to="L17" /><trip id="scooter_697" type="scooter" depart="1084.72" from_="L14" to="L17" /><trip id="scooter_398" type="scooter" depart="1085.86" from_="L15" to="L16" /><trip id="scooter_772" type="scooter" depart="1092.8" from_="L17" to="L14" /><trip id="bus_932" type="bus" depart="1093.24" from_="L14" to="L17" /><trip id="scooter_472" type="scooter" depart="1094.23" from_="L13" to="L15" /><trip id="scooter_740" type="scooter" depart="1096.32" from_="L14" to="L15" /><trip id="scooter_426" type="scooter" depart="1096.55" from_="L13" to="L18" /><trip id="bike_886" type="bike" depart="1098.07" from_="L16" to="L14" /><trip id="scooter_447" type="scooter" depart="1105.07" from_="L18" to="L16" /><trip id="pkw_362" type="pkw" depart="1111.09" from_="L13" to="L17" /><trip id="scooter_806" type="scooter" depart="1111.43" from_="L18" to="L17" /><trip id="bike_829" type="bike" depart="1112.32" from_="L16" to="L17" /><trip id="bike_413" type="bike" depart="1114.64" from_="L13" to="L18" /><trip id="pkw_910" type="pkw" depart="1123.21" from_="L14" to="L15" /><trip id="bike_633" type="bike" depart="1140.67" from_="L14" to="L15" /><trip id="bike_773" type="bike" depart="1144.75" from_="L16" to="L18" /><trip id="pkw_201" type="pkw" depart="1150.38" from_="L16" to="L18" /><trip id="bus_748" type="bus" depart="1154.9" from_="L18" to="L15" /><trip id="scooter_982" type="scooter" depart="1158.25" from_="L18" to="L17" /><trip id="scooter_985" type="scooter" depart="1162.84" from_="L13" to="L16" /><trip id="bus_699" type="bus" depart="1166.37" from_="L14" to="L15" /><trip id="bike_530" type="bike" depart="1168.14" from_="L13" to="L17" /><trip id="bike_142" type="bike" depart="1169.01" from_="L13" to="L17" /><trip id="bus_565" type="bus" depart="1169.38" from_="L18" to="L13" /><trip id="scooter_713" type="scooter" depart="1171.03" from_="L18" to="L13" /><trip id="pkw_232" type="pkw" depart="1172.15" from_="L17" to="L18" /><trip id="scooter_435" type="scooter" depart="1172.57" from_="L17" to="L13" /><trip id="bike_163" type="bike" depart="1179.07" from_="L13" to="L16" /><trip id="scooter_318" type="scooter" depart="1182.38" from_="L13" to="L17" /><trip id="scooter_420" type="scooter" depart="1184.14" from_="L16" to="L13" /><trip id="bike_681" type="bike" depart="1184.29" from_="L14" to="L15" /><trip id="bike_976" type="bike" depart="1184.68" from_="L18" to="L13" /><trip id="scooter_458" type="scooter" depart="1184.8" from_="L15" to="L18" /><trip id="scooter_147" type="scooter" depart="1186.81" from_="L17" to="L14" /><trip id="scooter_587" type="scooter" depart="1187.86" from_="L14" to="L15" /><trip id="scooter_138" type="scooter" depart="1188.17" from_="L13" to="L17" /><trip id="pkw_826" type="pkw" depart="1199.14" from_="L14" to="L13" /><trip id="scooter_600" type="scooter" depart="1205.28" from_="L17" to="L18" /><trip id="bus_572" type="bus" depart="1206.45" from_="L14" to="L16" /><trip id="scooter_750" type="scooter" depart="1207.06" from_="L13" to="L14" /><trip id="scooter_192" type="scooter" depart="1208.35" from_="L16" to="L14" /><trip id="bike_658" type="bike" depart="1208.35" from_="L15" to="L14" /><trip id="bike_422" type="bike" depart="1217.53" from_="L14" to="L17" /><trip id="scooter_622" type="scooter" depart="1223.27" from_="L17" to="L18" /><trip id="bus_823" type="bus" depart="1231.11" from_="L13" to="L18" /><trip id="scooter_529" type="scooter" depart="1233.27" from_="L15" to="L14" /><trip id="scooter_988" type="scooter" depart="1234.37" from_="L18" to="L16" /><trip id="scooter_64" type="scooter" depart="1237.23" from_="L13" to="L16" /><trip id="bike_61" type="bike" depart="1238.87" from_="L14" to="L15" /><trip id="bus_159" type="bus" depart="1241.8" from_="L17" to="L13" /><trip id="pkw_821" type="pkw" depart="1242.28" from_="L18" to="L17" /><trip id="bike_196" type="bike" depart="1242.89" from_="L18" to="L16" /><trip id="bus_316" type="bus" depart="1250.0" from_="L14" to="L17" /><trip id="bus_476" type="bus" depart="1254.45" from_="L15" to="L18" /><trip id="scooter_77" type="scooter" depart="1255.8" from_="L17" to="L14" /><trip id="bus_86" type="bus" depart="1256.27" from_="L13" to="L16" /><trip id="bike_146" type="bike" depart="1259.11" from_="L18" to="L16" /><trip id="bus_893" type="bus" depart="1260.17" from_="L16" to="L15" /><trip id="scooter_934" type="scooter" depart="1266.95" from_="L17" to="L14" /><trip id="scooter_762" type="scooter" depart="1273.39" from_="L13" to="L14" /><trip id="bike_479" type="bike" depart="1276.48" from_="L18" to="L15" /><trip id="scooter_382" type="scooter" depart="1277.43" from_="L15" to="L16" /><trip id="scooter_513" type="scooter" depart="1283.42" from_="L16" to="L15" /><trip id="scooter_561" type="scooter" depart="1287.07" from_="L14" to="L16" /><trip id="scooter_818" type="scooter" depart="1287.38" from_="L18" to="L16" /><trip id="bus_660" type="bus" depart="1304.37" from_="L16" to="L15" /><trip id="pkw_968" type="pkw" depart="1306.97" from_="L15" to="L13" /><trip id="scooter_942" type="scooter" depart="1311.48" from_="L18" to="L15" /><trip id="scooter_744" type="scooter" depart="1311.5" from_="L14" to="L17" /><trip id="pkw_834" type="pkw" depart="1319.61" from_="L17" to="L18" /><trip id="bike_549" type="bike" depart="1320.53" from_="L13" to="L15" /><trip id="pkw_679" type="pkw" depart="1321.66" from_="L15" to="L16" /><trip id="pkw_824" type="pkw" depart="1322.59" from_="L13" to="L15" /><trip id="bus_87" type="bus" depart="1325.21" from_="L16" to="L13" /><trip id="scooter_124" type="scooter" depart="1325.52" from_="L18" to="L13" /><trip id="bus_955" type="bus" depart="1331.31" from_="L16" to="L15" /><trip id="scooter_515" type="scooter" depart="1334.3" from_="L16" to="L13" /><trip id="bike_62" type="bike" depart="1334.74" from_="L13" to="L18" /><trip id="bike_3" type="bike" depart="1334.95" from_="L18" to="L14" /><trip id="scooter_22" type="scooter" depart="1336.32" from_="L13" to="L18" /><trip id="bus_638" type="bus" depart="1338.94" from_="L18" to="L13" /><trip id="scooter_875" type="scooter" depart="1346.38" from_="L14" to="L13" /><trip id="bus_191" type="bus" depart="1349.74" from_="L17" to="L16" /><trip id="scooter_329" type="scooter" depart="1357.27" from_="L17" to="L15" /><trip id="pkw_328" type="pkw" depart="1357.68" from_="L13" to="L14" /><trip id="scooter_357" type="scooter" depart="1361.9" from_="L16" to="L18" /><trip id="scooter_783" type="scooter" depart="1362.67" from_="L18" to="L13" /><trip id="scooter_448" type="scooter" depart="1366.29" from_="L16" to="L14" /><trip id="bike_491" type="bike" depart="1368.25" from_="L16" to="L17" /><trip id="bus_312" type="bus" depart="1368.97" from_="L13" to="L18" /><trip id="scooter_188" type="scooter" depart="1378.74" from_="L16" to="L13" /><trip id="scooter_331" type="scooter" depart="1379.97" from_="L14" to="L13" /><trip id="scooter_236" type="scooter" depart="1388.18" from_="L16" to="L13" /><trip id="pkw_625" type="pkw" depart="1394.34" from_="L15" to="L14" /><trip id="scooter_167" type="scooter" depart="1396.82" from_="L13" to="L15" /><trip id="scooter_777" type="scooter" depart="1396.87" from_="L18" to="L15" /><trip id="scooter_347" type="scooter" depart="1399.85" from_="L15