<?xml version="1.0" encoding="UTF-8"?>

<!-- generated on 2025-02-20 16:11:30 by Eclipse SUMO netedit Version 1.22.0
<neteditConfiguration xmlns:xsi="http://www.w3.org/2001/XMLSchema-instance" xsi:noNamespaceSchemaLocation="http://sumo.dlr.de/xsd/neteditConfiguration.xsd">

    <input>
        <sumo-net-file value="/Users/byronmason/Code/sim_SUMO/sumolympics.net.xml"/>
    </input>

    <output>
        <output-file value="/Users/byronmason/Code/sim_SUMO/sumolympics.net.xml"/>
    </output>

    <processing>
        <geometry.min-radius.fix.railways value="false"/>
        <geometry.max-grade.fix value="false"/>
        <offset.disable-normalization value="true"/>
        <lefthand value="0"/>
    </processing>

    <junctions>
        <no-turnarounds value="true"/>
        <junctions.corner-detail value="5"/>
        <junctions.limit-turn-speed value="5.50"/>
        <rectangular-lane-cut value="0"/>
    </junctions>

    <pedestrian>
        <walkingareas value="0"/>
    </pedestrian>

</neteditConfiguration>
-->

<net version="1.20" junctionCornerDetail="5" limitTurnSpeed="5.50" xmlns:xsi="http://www.w3.org/2001/XMLSchema-instance" xsi:noNamespaceSchemaLocation="http://sumo.dlr.de/xsd/net_file.xsd">

    <location netOffset="0.00,0.00" convBoundary="0.00,0.00,1000.00,0.00" origBoundary="-10000000000.00,-10000000000.00,10000000000.00,10000000000.00" projParameter="!"/>

    <edge id=":J2_0" function="internal">
        <lane id=":J2_0_0" index="0" allow="pedestrian" speed="13.89" length="10.29" width="2.00" shape="896.00,-19.10 898.69,-18.10 900.00,-15.90 901.31,-13.70 904.00,-12.70"/>
        <lane id=":J2_0_1" index="1" disallow="all" speed="13.89" length="10.29" width="2.10" shape="896.00,-17.05 898.69,-16.05 900.00,-13.85 901.31,-11.65 904.00,-10.65"/>
        <lane id=":J2_0_2" index="2" allow="bus" speed="13.89" length="10.29" shape="896.00,-14.40 898.69,-13.40 900.00,-11.20 901.31,-9.00 904.00,-8.00"/>
        <lane id=":J2_0_3" index="3" allow="rail_urban" speed="13.89" length="10.29" shape="896.00,-11.20 898.69,-10.20 900.00,-8.00 901.31,-5.80 904.00,-4.80"/>
        <lane id=":J2_0_4" index="4" disallow="pedestrian tram rail_urban rail rail_electric rail_fast ship container cable_car subway aircraft drone" speed="13.89" length="10.29" shape="896.00,-1.60 904.00,-1.60"/>
    </edge>

    <edge id="beg" from="J0" to="J2" priority="-1">
        <lane id="beg_0" index="0" allow="pedestrian" speed="13.89" length="896.00" width="2.00" shape="-0.00,-19.10 896.00,-19.10"/>
        <lane id="beg_1" index="1" disallow="all" speed="13.89" length="896.00" width="2.10" shape="-0.00,-17.05 896.00,-17.05"/>
        <lane id="beg_2" index="2" allow="bus" speed="13.89" length="896.00" shape="-0.00,-14.40 896.00,-14.40"/>
        <lane id="beg_3" index="3" allow="rail_urban" speed="13.89" length="896.00" shape="-0.00,-11.20 896.00,-11.20"/>
        <lane id="beg_4" index="4" allow="bicycle" speed="13.89" length="896.00" shape="-0.00,-8.00 896.00,-8.00"/>
        <lane id="beg_5" index="5" disallow="pedestrian tram rail_urban rail rail_electric rail_fast ship container cable_car subway aircraft drone" speed="13.89" length="896.00" shape="-0.00,-4.80 896.00,-4.80"/>
        <lane id="beg_6" index="6" disallow="pedestrian tram rail_urban rail rail_electric rail_fast ship container cable_car subway aircraft drone" speed="13.89" length="896.00" shape="-0.00,-1.60 896.00,-1.60"/>
    </edge>
    <edge id="end" from="J2" to="J1" priority="-1">
        <lane id="end_0" index="0" allow="pedestrian" speed="13.89" length="96.00" width="2.00" shape="904.00,-12.70 1000.00,-12.70"/>
        <lane id="end_1" index="1" allow="bicycle" speed="13.89" length="96.00" width="2.10" shape="904.00,-10.65 1000.00,-10.65"/>
        <lane id="end_2" index="2" allow="bus" speed="13.89" length="96.00" shape="904.00,-8.00 1000.00,-8.00"/>
        <lane id="end_3" index="3" allow="rail_urban" speed="13.89" length="96.00" shape="904.00,-4.80 1000.00,-4.80"/>
        <lane id="end_4" index="4" disallow="pedestrian tram rail_urban rail rail_electric rail_fast ship container cable_car subway aircraft drone" speed="13.89" length="96.00" shape="904.00,-1.60 1000.00,-1.60"/>
    </edge>

    <tlLogic id="J2" type="static" programID="0" offset="0">
        <phase duration="100" state="rrrrr"/>
        <phase duration="1000" state="GGGGG"/>
        <phase duration="100" state="rrrrr"/>
    </tlLogic>

    <junction id="J0" type="dead_end" x="0.00" y="0.00" incLanes="" intLanes="" shape="-0.00,0.00 -0.00,-20.10"/>
    <junction id="J1" type="dead_end" x="1000.00" y="0.00" incLanes="end_0 end_1 end_2 end_3 end_4" intLanes="" shape="1000.00,-13.70 1000.00,0.00"/>
    <junction id="J2" type="traffic_light" x="900.00" y="0.00" incLanes="beg_0 beg_1 beg_2 beg_3 beg_4 beg_5 beg_6" intLanes=":J2_0_0 :J2_0_1 :J2_0_2 :J2_0_3 :J2_0_4" shape="904.00,0.00 904.00,-13.70 901.98,-14.17 900.79,-15.36 899.21,-18.44 898.02,-19.63 896.00,-20.10 896.00,0.00">
        <request index="0" response="00000" foes="00000" cont="0"/>
        <request index="1" response="00000" foes="00000" cont="0"/>
        <request index="2" response="00000" foes="00000" cont="0"/>
        <request index="3" response="00000" foes="00000" cont="0"/>
        <request index="4" response="00000" foes="00000" cont="0"/>
    </junction>

    <connection from="beg" to="end" fromLane="0" toLane="0" via=":J2_0_0" tl="J2" linkIndex="0" dir="s" state="O"/>
    <connection from="beg" to="end" fromLane="1" toLane="1" via=":J2_0_1" tl="J2" linkIndex="1" dir="s" state="O"/>
    <connection from="beg" to="end" fromLane="2" toLane="2" via=":J2_0_2" tl="J2" linkIndex="2" dir="s" state="O"/>
    <connection from="beg" to="end" fromLane="3" toLane="3" via=":J2_0_3" tl="J2" linkIndex="3" dir="s" state="O"/>
    <connection from="beg" to="end" fromLane="6" toLane="4" via=":J2_0_4" tl="J2" linkIndex="4" dir="s" state="O"/>

    <connection from=":J2_0" to="end" fromLane="0" toLane="0" dir="s" state="M"/>
    <connection from=":J2_0" to="end" fromLane="1" toLane="1" dir="s" state="M"/>
    <connection from=":J2_0" to="end" fromLane="2" toLane="2" dir="s" state="M"/>
    <connection from=":J2_0" to="end" fromLane="3" toLane="3" dir="s" state="M"/>
    <connection from=":J2_0" to="end" fromLane="4" toLane="4" dir="s" state="M"/>

</net>
