<?xml version="1.0" encoding="UTF-8"?>

<!-- generated on 2025-02-19 14:21:37 by Eclipse SUMO netedit Version 1.22.0
<neteditConfiguration xmlns:xsi="http://www.w3.org/2001/XMLSchema-instance" xsi:noNamespaceSchemaLocation="http://sumo.dlr.de/xsd/neteditConfiguration.xsd">

    <input>
        <sumo-net-file value="/Users/byronmason/Code/SUMO/circles.net.xml"/>
    </input>

    <output>
        <output-file value="/Users/byronmason/Code/SUMO/circles.net.xml"/>
    </output>

    <processing>
        <geometry.min-radius.fix.railways value="false"/>
        <geometry.max-grade.fix value="false"/>
        <offset.disable-normalization value="true"/>
        <lefthand value="0"/>
    </processing>

    <junctions>
        <no-turnarounds value="true"/>
        <junctions.corner-detail value="5"/>
        <junctions.limit-turn-speed value="5.50"/>
        <rectangular-lane-cut value="0"/>
    </junctions>

    <pedestrian>
        <walkingareas value="0"/>
    </pedestrian>

</neteditConfiguration>
-->

<net version="1.20" junctionCornerDetail="5" limitTurnSpeed="5.50" xmlns:xsi="http://www.w3.org/2001/XMLSchema-instance" xsi:noNamespaceSchemaLocation="http://sumo.dlr.de/xsd/net_file.xsd">

    <location netOffset="0.00,0.00" convBoundary="-100.44,-120.96,62.80,15.12" origBoundary="-10000000000.00,-10000000000.00,10000000000.00,10000000000.00" projParameter="!"/>

    <edge id=":J0_0" function="internal">
        <lane id=":J0_0_0" index="0" speed="13.89" length="2.78" shape="22.57,-8.38 22.83,-8.47 23.00,-8.56 23.14,-8.69 23.31,-8.90"/>
        <lane id=":J0_0_1" index="1" speed="7.32" length="2.78" shape="23.61,-5.35 24.38,-5.63 24.88,-5.90 25.30,-6.28 25.82,-6.92"/>
        <lane id=":J0_0_2" index="2" speed="9.29" length="2.78" shape="24.64,-2.32 25.92,-2.79 26.76,-3.24 27.46,-3.88 28.33,-4.93"/>
    </edge>
    <edge id=":J1_0" function="internal">
        <lane id=":J1_0_0" index="0" speed="13.89" length="2.74" shape="-22.44,6.69 -22.18,6.75 -21.99,6.76 -21.81,6.73 -21.55,6.65"/>
        <lane id=":J1_0_1" index="1" speed="7.36" length="2.74" shape="-23.19,9.80 -22.41,9.97 -21.84,10.02 -21.29,9.92 -20.52,9.68"/>
        <lane id=":J1_0_2" index="2" speed="9.34" length="2.74" shape="-23.94,12.91 -22.63,13.20 -21.69,13.28 -20.77,13.12 -19.49,12.71"/>
    </edge>
    <edge id=":J2_0" function="internal">
        <lane id=":J2_0_0" index="0" speed="4.25" length="3.71" shape="33.14,-90.48 32.97,-90.80 32.82,-91.00 32.60,-91.15 32.27,-91.29"/>
        <lane id=":J2_0_1" index="1" speed="6.74" length="3.71" shape="36.04,-91.83 35.54,-92.80 35.08,-93.41 34.44,-93.84 33.44,-94.27"/>
        <lane id=":J2_0_2" index="2" speed="8.52" length="3.71" shape="38.93,-93.19 38.12,-94.80 37.33,-95.82 36.27,-96.54 34.60,-97.25"/>
    </edge>
    <edge id=":J4_0" function="internal">
        <lane id=":J4_0_0" index="0" speed="4.00" length="1.78" shape="52.85,-46.20 53.09,-46.59 53.20,-47.00 53.19,-47.43 53.04,-47.87"/>
        <lane id=":J4_0_1" index="1" speed="6.25" length="5.33" shape="55.36,-44.21 56.08,-45.40 56.42,-46.63 56.37,-47.90 55.94,-49.22"/>
        <lane id=":J4_0_2" index="2" speed="7.89" length="8.89" shape="57.86,-42.22 59.08,-44.20 59.64,-46.25 59.56,-48.38 58.84,-50.58"/>
    </edge>
    <edge id=":J6_0" function="internal">
        <lane id=":J6_0_0" index="0" speed="4.28" length="3.58" shape="-21.04,-112.17 -21.37,-112.28 -21.62,-112.32 -21.86,-112.29 -22.19,-112.17"/>
        <lane id=":J6_0_1" index="1" speed="6.79" length="3.58" shape="-19.88,-115.15 -20.86,-115.50 -21.59,-115.62 -22.33,-115.51 -23.32,-115.17"/>
        <lane id=":J6_0_2" index="2" speed="8.60" length="3.58" shape="-18.71,-118.13 -20.36,-118.71 -21.57,-118.92 -22.79,-118.73 -24.45,-118.16"/>
    </edge>
    <edge id=":J7_0" function="internal">
        <lane id=":J7_0_0" index="0" speed="4.15" length="1.34" shape="-72.97,-93.04 -73.28,-92.89 -73.53,-92.69 -73.74,-92.44 -73.89,-92.13"/>
        <lane id=":J7_0_1" index="1" speed="6.55" length="4.01" shape="-74.10,-96.04 -75.02,-95.59 -75.79,-94.98 -76.40,-94.22 -76.87,-93.31"/>
        <lane id=":J7_0_2" index="2" speed="8.28" length="6.68" shape="-75.23,-99.03 -76.76,-98.28 -78.04,-97.27 -79.07,-96.01 -79.85,-94.49"/>
    </edge>
    <edge id=":J8_0" function="internal">
        <lane id=":J8_0_0" index="0" speed="8.09" length="6.82" shape="-95.16,-47.01 -94.87,-45.82 -93.84,-44.03 -92.66,-42.26 -91.89,-41.09"/>
        <lane id=":J8_0_1" index="1" speed="9.40" length="9.39" shape="-98.14,-48.19 -98.13,-47.14 -97.55,-45.35 -96.41,-42.82 -94.70,-39.56"/>
    </edge>
    <edge id=":J9_0" function="internal">
        <lane id=":J9_0_0" index="0" speed="7.02" length="4.67" shape="-73.52,-7.51 -72.85,-6.52 -72.03,-5.73 -71.05,-5.14 -69.92,-4.75"/>
        <lane id=":J9_0_1" index="1" speed="8.66" length="7.34" shape="-76.33,-5.97 -75.27,-4.42 -73.98,-3.18 -72.45,-2.25 -70.67,-1.64"/>
        <lane id=":J9_0_2" index="2" speed="9.51" length="8.95" shape="-76.33,-5.97 -75.50,-4.47 -74.06,-2.01 -72.53,0.33 -71.42,1.47"/>
    </edge>

    <edge id="E1" from="J0" to="J4" priority="-1">
        <lane id="E1_0" index="0" speed="13.89" length="47.57" shape="23.31,-8.90 52.85,-46.20"/>
        <lane id="E1_1" index="1" speed="13.89" length="47.57" shape="25.82,-6.92 55.36,-44.21"/>
        <lane id="E1_2" index="2" speed="13.89" length="47.57" shape="28.33,-4.93 57.86,-42.22"/>
    </edge>
    <edge id="E2" from="J4" to="J2" priority="-1">
        <lane id="E2_0" index="0" speed="13.89" length="47.03" shape="53.04,-47.87 33.14,-90.48"/>
        <lane id="E2_1" index="1" speed="13.89" length="47.03" shape="55.94,-49.22 36.04,-91.83"/>
        <lane id="E2_2" index="2" speed="13.89" length="47.03" shape="58.84,-50.58 38.93,-93.19"/>
    </edge>
    <edge id="E4" from="J6" to="J7" priority="-1">
        <lane id="E4_0" index="0" speed="13.89" length="54.26" shape="-22.19,-112.17 -72.97,-93.04"/>
        <lane id="E4_1" index="1" speed="13.89" length="54.26" shape="-23.32,-115.17 -74.10,-96.04"/>
        <lane id="E4_2" index="2" speed="13.89" length="54.26" shape="-24.45,-118.16 -75.23,-99.03"/>
    </edge>
    <edge id="E5" from="J7" to="J8" priority="-1">
        <lane id="E5_0" index="0" speed="13.89" length="49.78" shape="-73.89,-92.13 -92.19,-45.84"/>
        <lane id="E5_1" index="1" speed="13.89" length="49.78" shape="-76.87,-93.31 -95.16,-47.01"/>
        <lane id="E5_2" index="2" speed="13.89" length="49.78" shape="-79.85,-94.49 -98.14,-48.19"/>
    </edge>
    <edge id="E6" from="J8" to="J9" priority="-1">
        <lane id="E6_0" index="0" speed="13.89" length="38.28" shape="-91.89,-41.09 -73.52,-7.51"/>
        <lane id="E6_1" index="1" speed="13.89" length="38.28" shape="-94.70,-39.56 -76.33,-5.97"/>
    </edge>
    <edge id="E8" from="J1" to="J0" priority="-1">
        <lane id="E8_0" index="0" speed="13.89" length="46.62" shape="-21.55,6.65 22.57,-8.38"/>
        <lane id="E8_1" index="1" speed="13.89" length="46.62" shape="-20.52,9.68 23.61,-5.35"/>
        <lane id="E8_2" index="2" speed="13.89" length="46.62" shape="-19.49,12.71 24.64,-2.32"/>
    </edge>
    <edge id="edge1" from="J2" to="J6" priority="-1">
        <lane id="edge1_0" index="0" speed="13.89" length="57.25" shape="32.27,-91.29 -21.04,-112.17"/>
        <lane id="edge1_1" index="1" speed="13.89" length="57.25" shape="33.44,-94.27 -19.88,-115.15"/>
        <lane id="edge1_2" index="2" speed="13.89" length="57.25" shape="34.60,-97.25 -18.71,-118.13"/>
    </edge>
    <edge id="edge2" from="J9" to="J1" priority="-1">
        <lane id="edge2_0" index="0" speed="13.89" length="48.84" shape="-69.92,-4.75 -22.44,6.69"/>
        <lane id="edge2_1" index="1" speed="13.89" length="48.84" shape="-70.67,-1.64 -23.19,9.80"/>
        <lane id="edge2_2" index="2" speed="13.89" length="48.84" shape="-71.42,1.47 -23.94,12.91"/>
    </edge>

    <junction id="J0" type="priority" x="27.83" y="-1.72" incLanes="E8_0 E8_1 E8_2" intLanes=":J0_0_0 :J0_0_1 :J0_0_2" shape="29.58,-3.94 22.06,-9.90 25.15,-0.81 27.07,-1.54 27.70,-1.90 28.26,-2.37 28.85,-3.03">
        <request index="0" response="000" foes="000" cont="0"/>
        <request index="1" response="000" foes="000" cont="0"/>
        <request index="2" response="000" foes="000" cont="0"/>
    </junction>
    <junction id="J1" type="priority" x="-21.61" y="15.12" incLanes="edge2_0 edge2_1 edge2_2" intLanes=":J1_0_0 :J1_0_1 :J1_0_2" shape="-18.97,14.22 -22.07,5.13 -24.32,14.47 -22.34,14.87 -21.62,14.90 -20.91,14.81 -20.07,14.58">
        <request index="0" response="000" foes="000" cont="0"/>
        <request index="1" response="000" foes="000" cont="0"/>
        <request index="2" response="000" foes="000" cont="0"/>
    </junction>
    <junction id="J2" type="priority" x="38.76" y="-97.34" incLanes="E2_0 E2_1 E2_2" intLanes=":J2_0_0 :J2_0_1 :J2_0_2" shape="31.69,-89.80 40.38,-93.86 39.10,-96.27 38.46,-97.02 37.67,-97.62 36.62,-98.15 35.19,-98.74">
        <request index="0" response="000" foes="000" cont="0"/>
        <request index="1" response="000" foes="000" cont="0"/>
        <request index="2" response="000" foes="000" cont="0"/>
    </junction>
    <junction id="J4" type="priority" x="62.80" y="-45.88" incLanes="E1_0 E1_1 E1_2" intLanes=":J4_0_0 :J4_0_1 :J4_0_2" shape="60.29,-51.25 51.59,-47.19 59.12,-41.23 60.88,-44.41 61.25,-46.06 61.28,-47.75 60.95,-49.48">
        <request index="0" response="000" foes="000" cont="0"/>
        <request index="1" response="000" foes="000" cont="0"/>
        <request index="2" response="000" foes="000" cont="0"/>
    </junction>
    <junction id="J6" type="priority" x="-21.56" y="-120.96" incLanes="edge1_0 edge1_1 edge1_2" intLanes=":J6_0_0 :J6_0_1 :J6_0_2" shape="-21.63,-110.68 -18.13,-119.62 -20.62,-120.45 -21.56,-120.56 -22.51,-120.47 -23.61,-120.17 -25.01,-119.66">
        <request index="0" response="000" foes="000" cont="0"/>
        <request index="1" response="000" foes="000" cont="0"/>
        <request index="2" response="000" foes="000" cont="0"/>
    </junction>
    <junction id="J7" type="priority" x="-79.77" y="-99.03" incLanes="E4_0 E4_1 E4_2" intLanes=":J7_0_0 :J7_0_1 :J7_0_2" shape="-72.40,-91.55 -75.79,-100.53 -78.17,-99.26 -79.17,-98.42 -80.02,-97.44 -80.74,-96.32 -81.33,-95.07">
        <request index="0" response="000" foes="000" cont="0"/>
        <request index="1" response="000" foes="000" cont="0"/>
        <request index="2" response="000" foes="000" cont="0"/>
    </junction>
    <junction id="J8" type="priority" x="-100.44" y="-46.72" incLanes="E5_0 E5_1 E5_2" intLanes=":J8_0_0 :J8_0_1" shape="-96.10,-38.79 -90.49,-41.86 -90.91,-42.97 -90.99,-43.53 -90.98,-44.10 -90.88,-44.67 -90.70,-45.25 -99.63,-48.78 -99.60,-46.75 -99.15,-45.25 -98.42,-43.42 -97.41,-41.27">
        <request index="0" response="00" foes="00" cont="0"/>
        <request index="1" response="00" foes="00" cont="0"/>
    </junction>
    <junction id="J9" type="priority" x="-73.45" y="2.63" incLanes="E6_0 E6_1" intLanes=":J9_0_0 :J9_0_1 :J9_0_2" shape="-71.79,3.03 -69.55,-6.30 -70.60,-6.71 -71.05,-7.00 -71.45,-7.36 -71.81,-7.79 -72.12,-8.27 -77.73,-5.20 -76.38,-2.80 -75.17,-0.81 -74.11,0.77 -73.19,1.94 -72.42,2.69">
        <request index="0" response="000" foes="000" cont="0"/>
        <request index="1" response="000" foes="000" cont="0"/>
        <request index="2" response="000" foes="000" cont="0"/>
    </junction>

    <connection from="E1" to="E2" fromLane="0" toLane="0" via=":J4_0_0" dir="r" state="M"/>
    <connection from="E1" to="E2" fromLane="1" toLane="1" via=":J4_0_1" dir="r" state="M"/>
    <connection from="E1" to="E2" fromLane="2" toLane="2" via=":J4_0_2" dir="r" state="M"/>
    <connection from="E2" to="edge1" fromLane="0" toLane="0" via=":J2_0_0" dir="s" state="M"/>
    <connection from="E2" to="edge1" fromLane="1" toLane="1" via=":J2_0_1" dir="s" state="M"/>
    <connection from="E2" to="edge1" fromLane="2" toLane="2" via=":J2_0_2" dir="s" state="M"/>
    <connection from="E4" to="E5" fromLane="0" toLane="0" via=":J7_0_0" dir="r" state="M"/>
    <connection from="E4" to="E5" fromLane="1" toLane="1" via=":J7_0_1" dir="r" state="M"/>
    <connection from="E4" to="E5" fromLane="2" toLane="2" via=":J7_0_2" dir="r" state="M"/>
    <connection from="E5" to="E6" fromLane="1" toLane="0" via=":J8_0_0" dir="r" state="M"/>
    <connection from="E5" to="E6" fromLane="2" toLane="1" via=":J8_0_1" dir="r" state="M"/>
    <connection from="E6" to="edge2" fromLane="0" toLane="0" via=":J9_0_0" dir="r" state="M"/>
    <connection from="E6" to="edge2" fromLane="1" toLane="1" via=":J9_0_1" dir="r" state="M"/>
    <connection from="E6" to="edge2" fromLane="1" toLane="2" via=":J9_0_2" dir="r" state="M"/>
    <connection from="E8" to="E1" fromLane="0" toLane="0" via=":J0_0_0" dir="s" state="M"/>
    <connection from="E8" to="E1" fromLane="1" toLane="1" via=":J0_0_1" dir="s" state="M"/>
    <connection from="E8" to="E1" fromLane="2" toLane="2" via=":J0_0_2" dir="s" state="M"/>
    <connection from="edge1" to="E4" fromLane="0" toLane="0" via=":J6_0_0" dir="s" state="M"/>
    <connection from="edge1" to="E4" fromLane="1" toLane="1" via=":J6_0_1" dir="s" state="M"/>
    <connection from="edge1" to="E4" fromLane="2" toLane="2" via=":J6_0_2" dir="s" state="M"/>
    <connection from="edge2" to="E8" fromLane="0" toLane="0" via=":J1_0_0" dir="s" state="M"/>
    <connection from="edge2" to="E8" fromLane="1" toLane="1" via=":J1_0_1" dir="s" state="M"/>
    <connection from="edge2" to="E8" fromLane="2" toLane="2" via=":J1_0_2" dir="s" state="M"/>

    <connection from=":J0_0" to="E1" fromLane="0" toLane="0" dir="s" state="M"/>
    <connection from=":J0_0" to="E1" fromLane="1" toLane="1" dir="s" state="M"/>
    <connection from=":J0_0" to="E1" fromLane="2" toLane="2" dir="s" state="M"/>
    <connection from=":J1_0" to="E8" fromLane="0" toLane="0" dir="s" state="M"/>
    <connection from=":J1_0" to="E8" fromLane="1" toLane="1" dir="s" state="M"/>
    <connection from=":J1_0" to="E8" fromLane="2" toLane="2" dir="s" state="M"/>
    <connection from=":J2_0" to="edge1" fromLane="0" toLane="0" dir="s" state="M"/>
    <connection from=":J2_0" to="edge1" fromLane="1" toLane="1" dir="s" state="M"/>
    <connection from=":J2_0" to="edge1" fromLane="2" toLane="2" dir="s" state="M"/>
    <connection from=":J4_0" to="E2" fromLane="0" toLane="0" dir="r" state="M"/>
    <connection from=":J4_0" to="E2" fromLane="1" toLane="1" dir="r" state="M"/>
    <connection from=":J4_0" to="E2" fromLane="2" toLane="2" dir="r" state="M"/>
    <connection from=":J6_0" to="E4" fromLane="0" toLane="0" dir="s" state="M"/>
    <connection from=":J6_0" to="E4" fromLane="1" toLane="1" dir="s" state="M"/>
    <connection from=":J6_0" to="E4" fromLane="2" toLane="2" dir="s" state="M"/>
    <connection from=":J7_0" to="E5" fromLane="0" toLane="0" dir="r" state="M"/>
    <connection from=":J7_0" to="E5" fromLane="1" toLane="1" dir="r" state="M"/>
    <connection from=":J7_0" to="E5" fromLane="2" toLane="2" dir="r" state="M"/>
    <connection from=":J8_0" to="E6" fromLane="0" toLane="0" dir="r" state="M"/>
    <connection from=":J8_0" to="E6" fromLane="1" toLane="1" dir="r" state="M"/>
    <connection from=":J9_0" to="edge2" fromLane="0" toLane="0" dir="r" state="M"/>
    <connection from=":J9_0" to="edge2" fromLane="1" toLane="1" dir="r" state="M"/>
    <connection from=":J9_0" to="edge2" fromLane="2" toLane="2" dir="r" state="M"/>

</net>
