<routes>
   <!-- <vType id="car" type="passenger" length="5" accel="3.5" decel="2.2" sigma="1.0"/> -->
   <vType id="moped" type="passenger" length="1.8" accel="3.5" decel="2.2" sigma="1.0"/>
   <!-- <flow id="carflow" type="car" beg="0" end="0" number="5" from="edge1" to="edge2"/> -->
   <flow id="scooterFlow" type="moped" beg="0" end="0" number="1000" from="edge1" to="edge2"/>
</routes>
