<configuration>
    <input>
       <net-file value="circles.net.xml"/>
       <route-files value="circles.rou.xml"/>
       <additional-files value="circles.add.xml"/>
    </input>


    <processing>
        <lateral-resolution value="0.5" />
    </processing>
</configuration>
