<?xml version="1.0" encoding="UTF-8"?>

<!-- generated on 2025-03-16 11:15:33 by Eclipse SUMO netedit Version 1.21.0
<neteditConfiguration xmlns:xsi="http://www.w3.org/2001/XMLSchema-instance" xsi:noNamespaceSchemaLocation="http://sumo.dlr.de/xsd/neteditConfiguration.xsd">

    <input>
        <sumocfg-file value="C:\Users\Nguyen Minh Quan\OneDrive - student.vgu.edu.vn\RMIT_Feb\DirectoryName\Simple cross intersection\simpleT.sumocfg"/>
        <additional-files value=""/>
        <route-files value="C:\Users\Nguyen Minh Quan\OneDrive - student.vgu.edu.vn\RMIT_Feb\DirectoryName\Simple cross intersection\simpleT.rou.xml"/>
        <sumo-net-file value="C:\Users\Nguyen Minh Quan\OneDrive - student.vgu.edu.vn\RMIT_Feb\DirectoryName\Simple cross intersection\simpleT.net.xml"/>
    </input>

    <output>
        <output-file value="C:\Users\Nguyen Minh Quan\OneDrive - student.vgu.edu.vn\RMIT_Feb\DirectoryName\Simple cross intersection\simpleT.net.xml"/>
    </output>

    <processing>
        <geometry.min-radius.fix.railways value="false"/>
        <geometry.max-grade.fix value="false"/>
        <offset.disable-normalization value="true"/>
        <lefthand value="0"/>
    </processing>

    <junctions>
        <no-turnarounds value="true"/>
        <junctions.corner-detail value="5"/>
        <junctions.limit-turn-speed value="5.50"/>
        <rectangular-lane-cut value="0"/>
    </junctions>

    <pedestrian>
        <walkingareas value="0"/>
    </pedestrian>

    <netedit>
        <ignore.routeelements value="false"/>
    </netedit>

</neteditConfiguration>
-->

<net version="1.20" junctionCornerDetail="5" limitTurnSpeed="5.50" xmlns:xsi="http://www.w3.org/2001/XMLSchema-instance" xsi:noNamespaceSchemaLocation="http://sumo.dlr.de/xsd/net_file.xsd">

    <location netOffset="0.00,0.00" convBoundary="0.00,-829.28,2000.00,1000.00" origBoundary="-10000000000.00,-10000000000.00,10000000000.00,10000000000.00" projParameter="!"/>

    <edge id=":3_0" function="internal">
        <lane id=":3_0_0" index="0" speed="6.51" length="9.03" shape="992.00,13.60 991.65,11.15 990.60,9.40 988.85,8.35 986.40,8.00"/>
    </edge>
    <edge id=":3_1" function="internal">
        <lane id=":3_1_0" index="0" speed="13.89" length="27.23" shape="992.00,13.60 992.03,-13.63"/>
        <lane id=":3_1_1" index="1" speed="13.89" length="27.23" shape="995.20,13.60 995.23,-13.63"/>
        <lane id=":3_1_2" index="2" speed="13.89" length="27.23" shape="998.40,13.60 998.43,-13.62"/>
    </edge>
    <edge id=":3_4" function="internal">
        <lane id=":3_4_0" index="0" speed="10.37" length="5.04" shape="998.40,13.60 999.11,8.61"/>
    </edge>
    <edge id=":3_20" function="internal">
        <lane id=":3_20_0" index="0" speed="10.37" length="19.49" shape="999.11,8.61 999.35,6.95 1002.20,2.20 1006.96,-0.65 1013.62,-1.60"/>
    </edge>
    <edge id=":3_5" function="internal">
        <lane id=":3_5_0" index="0" speed="6.51" length="9.05" shape="1013.62,8.00 1011.16,8.35 1009.40,9.40 1008.35,11.15 1008.00,13.60"/>
    </edge>
    <edge id=":3_6" function="internal">
        <lane id=":3_6_0" index="0" speed="13.89" length="27.22" shape="1013.62,8.00 986.40,8.00"/>
        <lane id=":3_6_1" index="1" speed="13.89" length="27.22" shape="1013.62,4.80 986.40,4.80"/>
        <lane id=":3_6_2" index="2" speed="13.89" length="27.22" shape="1013.62,1.60 986.40,1.60"/>
    </edge>
    <edge id=":3_9" function="internal">
        <lane id=":3_9_0" index="0" speed="10.36" length="5.01" shape="1013.62,1.60 1008.66,0.89"/>
    </edge>
    <edge id=":3_21" function="internal">
        <lane id=":3_21_0" index="0" speed="10.36" length="19.52" shape="1008.66,0.89 1006.96,0.65 1002.21,-2.21 999.36,-6.96 998.43,-13.62"/>
    </edge>
    <edge id=":3_10" function="internal">
        <lane id=":3_10_0" index="0" speed="6.50" length="9.03" shape="1008.03,-13.60 1008.37,-11.15 1009.42,-9.40 1011.17,-8.35 1013.62,-8.00"/>
    </edge>
    <edge id=":3_11" function="internal">
        <lane id=":3_11_0" index="0" speed="13.89" length="27.21" shape="1008.03,-13.60 1008.00,13.60"/>
        <lane id=":3_11_1" index="1" speed="13.89" length="27.21" shape="1004.83,-13.61 1004.80,13.60"/>
        <lane id=":3_11_2" index="2" speed="13.89" length="27.21" shape="1001.63,-13.62 1001.60,13.60"/>
    </edge>
    <edge id=":3_14" function="internal">
        <lane id=":3_14_0" index="0" speed="10.38" length="4.99" shape="1001.63,-13.62 1000.91,-8.68"/>
    </edge>
    <edge id=":3_22" function="internal">
        <lane id=":3_22_0" index="0" speed="10.38" length="19.55" shape="1000.91,-8.68 1000.66,-6.96 997.80,-2.20 993.05,0.65 986.40,1.60"/>
    </edge>
    <edge id=":3_15" function="internal">
        <lane id=":3_15_0" index="0" speed="6.53" length="9.08" shape="986.40,-8.00 988.86,-8.35 990.61,-9.41 991.67,-11.17 992.03,-13.63"/>
    </edge>
    <edge id=":3_16" function="internal">
        <lane id=":3_16_0" index="0" speed="13.89" length="27.22" shape="986.40,-8.00 1013.62,-8.00"/>
        <lane id=":3_16_1" index="1" speed="13.89" length="27.22" shape="986.40,-4.80 1013.62,-4.80"/>
        <lane id=":3_16_2" index="2" speed="13.89" length="27.22" shape="986.40,-1.60 1013.62,-1.60"/>
    </edge>
    <edge id=":3_19" function="internal">
        <lane id=":3_19_0" index="0" speed="10.36" length="5.01" shape="986.40,-1.60 991.36,-0.89"/>
    </edge>
    <edge id=":3_23" function="internal">
        <lane id=":3_23_0" index="0" speed="10.36" length="19.50" shape="991.36,-0.89 993.05,-0.65 997.80,2.20 1000.65,6.95 1001.60,13.60"/>
    </edge>

    <edge id="L13" from="3" to="2" priority="3">
        <lane id="L13_0" index="0" speed="13.89" length="986.40" shape="986.40,8.00 0.00,8.00"/>
        <lane id="L13_1" index="1" speed="13.89" length="986.40" shape="986.40,4.80 0.00,4.80"/>
        <lane id="L13_2" index="2" speed="13.89" length="986.40" shape="986.40,1.60 0.00,1.60"/>
    </edge>
    <edge id="L14" from="2" to="3" priority="3">
        <lane id="L14_0" index="0" speed="13.89" length="986.40" shape="0.00,-8.00 986.40,-8.00"/>
        <lane id="L14_1" index="1" speed="13.89" length="986.40" shape="0.00,-4.80 986.40,-4.80"/>
        <lane id="L14_2" index="2" speed="13.89" length="986.40" shape="0.00,-1.60 986.40,-1.60"/>
    </edge>
    <edge id="L15" from="6" to="3" priority="2">
        <lane id="L15_0" index="0" speed="13.89" length="986.40" shape="992.00,1000.00 992.00,13.60"/>
        <lane id="L15_1" index="1" speed="13.89" length="986.40" shape="995.20,1000.00 995.20,13.60"/>
        <lane id="L15_2" index="2" speed="13.89" length="986.40" shape="998.40,1000.00 998.40,13.60"/>
    </edge>
    <edge id="L16" from="3" to="6" priority="2">
        <lane id="L16_0" index="0" speed="13.89" length="986.40" shape="1008.00,13.60 1008.00,1000.00"/>
        <lane id="L16_1" index="1" speed="13.89" length="986.40" shape="1004.80,13.60 1004.80,1000.00"/>
        <lane id="L16_2" index="2" speed="13.89" length="986.40" shape="1001.60,13.60 1001.60,1000.00"/>
    </edge>
    <edge id="L17" from="4" to="3" priority="3">
        <lane id="L17_0" index="0" speed="13.89" length="986.38" shape="2000.00,8.00 1013.62,8.00"/>
        <lane id="L17_1" index="1" speed="13.89" length="986.38" shape="2000.00,4.80 1013.62,4.80"/>
        <lane id="L17_2" index="2" speed="13.89" length="986.38" shape="2000.00,1.60 1013.62,1.60"/>
    </edge>
    <edge id="L18" from="3" to="4" priority="3">
        <lane id="L18_0" index="0" speed="13.89" length="986.38" shape="1013.62,-8.00 2000.00,-8.00"/>
        <lane id="L18_1" index="1" speed="13.89" length="986.38" shape="1013.62,-4.80 2000.00,-4.80"/>
        <lane id="L18_2" index="2" speed="13.89" length="986.38" shape="1013.62,-1.60 2000.00,-1.60"/>
    </edge>
    <edge id="L19" from="J0" to="3" priority="3" length="1000.00">
        <lane id="L19_0" index="0" speed="13.89" length="1000.00" shape="1009.59,-829.26 1008.03,-13.60"/>
        <lane id="L19_1" index="1" speed="13.89" length="1000.00" shape="1006.39,-829.27 1004.83,-13.61"/>
        <lane id="L19_2" index="2" speed="13.89" length="1000.00" shape="1003.19,-829.28 1001.63,-13.62"/>
    </edge>
    <edge id="L20" from="3" to="J0" priority="3" length="1000.00">
        <lane id="L20_0" index="0" speed="13.89" length="1000.00" shape="992.03,-13.63 993.59,-829.30"/>
        <lane id="L20_1" index="1" speed="13.89" length="1000.00" shape="995.23,-13.63 996.79,-829.29"/>
        <lane id="L20_2" index="2" speed="13.89" length="1000.00" shape="998.43,-13.62 999.99,-829.28"/>
    </edge>

    <tlLogic id="3" type="static" programID="0" offset="0">
        <phase duration="42" state="rrrrrGGGGgrrrrrGGGGg"/>
        <phase duration="3"  state="rrrrryyyyyrrrrryyyyy"/>
        <phase duration="42" state="GGGGgrrrrrGGGGgrrrrr"/>
        <phase duration="3"  state="yyyyyrrrrryyyyyrrrrr"/>
    </tlLogic>

    <junction id="2" type="dead_end" x="0.00" y="0.00" incLanes="L13_0 L13_1 L13_2" intLanes="" shape="0.00,0.00 0.00,9.60 0.00,0.00"/>
    <junction id="3" type="traffic_light" x="1000.00" y="0.00" incLanes="L15_0 L15_1 L15_2 L17_0 L17_1 L17_2 L19_0 L19_1 L19_2 L14_0 L14_1 L14_2" intLanes=":3_0_0 :3_1_0 :3_1_1 :3_1_2 :3_20_0 :3_5_0 :3_6_0 :3_6_1 :3_6_2 :3_21_0 :3_10_0 :3_11_0 :3_11_1 :3_11_2 :3_22_0 :3_15_0 :3_16_0 :3_16_1 :3_16_2 :3_23_0" shape="990.40,13.60 1009.60,13.60 1010.05,11.38 1010.60,10.60 1011.39,10.04 1012.39,9.71 1013.62,9.60 1013.62,-9.60 1011.40,-10.04 1010.62,-10.60 1010.07,-11.38 1009.73,-12.38 1009.63,-13.60 990.43,-13.64 989.98,-11.39 989.42,-10.61 988.63,-10.05 987.63,-9.71 986.40,-9.60 986.40,9.60 988.62,10.04 989.40,10.60 989.96,11.38 990.29,12.38">
        <request index="0"  response="00000000000111000000" foes="00000000000111000000" cont="0"/>
        <request index="1"  response="11111000001111000000" foes="11111100001111000000" cont="0"/>
        <request index="2"  response="11111000001111000000" foes="11111100001111000000" cont="0"/>
        <request index="3"  response="11111000001111000000" foes="11111100001111000000" cont="0"/>
        <request index="4"  response="11110011101111000000" foes="11110011101111000000" cont="1"/>
        <request index="5"  response="00000000000000000000" foes="00000011100000000000" cont="0"/>
        <request index="6"  response="00000100000000010000" foes="10000111100000011111" cont="0"/>
        <request index="7"  response="00000100000000010000" foes="10000111100000011111" cont="0"/>
        <request index="8"  response="00000100000000010000" foes="10000111100000011111" cont="0"/>
        <request index="9"  response="01110100000000010000" foes="01110111100000011110" cont="1"/>
        <request index="10" response="01110000000000000000" foes="01110000000000000000" cont="0"/>
        <request index="11" response="11110000001111100000" foes="11110000001111110000" cont="0"/>
        <request index="12" response="11110000001111100000" foes="11110000001111110000" cont="0"/>
        <request index="13" response="11110000001111100000" foes="11110000001111110000" cont="0"/>
        <request index="14" response="11110000001111001110" foes="11110000001111001110" cont="1"/>
        <request index="15" response="00000000000000000000" foes="00000000000000001110" cont="0"/>
        <request index="16" response="00000100000000010000" foes="00000111111000011110" cont="0"/>
        <request index="17" response="00000100000000010000" foes="00000111111000011110" cont="0"/>
        <request index="18" response="00000100000000010000" foes="00000111111000011110" cont="0"/>
        <request index="19" response="00000100000111010000" foes="00000111100111011110" cont="1"/>
    </junction>
    <junction id="4" type="dead_end" x="2000.00" y="0.00" incLanes="L18_0 L18_1 L18_2" intLanes="" shape="2000.00,0.00 2000.00,-9.60 2000.00,0.00"/>
    <junction id="6" type="dead_end" x="1000.00" y="1000.00" incLanes="L16_0 L16_1 L16_2" intLanes="" shape="1000.00,1000.00 1009.60,1000.00 1000.00,1000.00"/>
    <junction id="J0" type="dead_end" x="1001.59" y="-829.28" incLanes="L20_0 L20_1 L20_2" intLanes="" shape="1001.59,-829.28 991.99,-829.30 1001.59,-829.28"/>

    <junction id=":3_20_0" type="internal" x="999.11" y="8.61" incLanes=":3_4_0 L19_0 L19_1 L19_2" intLanes=":3_6_0 :3_6_1 :3_6_2 :3_9_0 :3_10_0 :3_11_0 :3_11_1 :3_11_2 :3_16_0 :3_16_1 :3_16_2 :3_19_0"/>
    <junction id=":3_21_0" type="internal" x="1008.66" y="0.89" incLanes=":3_9_0 L14_0 L14_1 L14_2" intLanes=":3_1_0 :3_1_1 :3_1_2 :3_4_0 :3_11_0 :3_11_1 :3_11_2 :3_14_0 :3_15_0 :3_16_0 :3_16_1 :3_16_2"/>
    <junction id=":3_22_0" type="internal" x="1000.91" y="-8.68" incLanes=":3_14_0 L15_0 L15_1 L15_2" intLanes=":3_0_0 :3_1_0 :3_1_1 :3_1_2 :3_6_0 :3_6_1 :3_6_2 :3_9_0 :3_16_0 :3_16_1 :3_16_2 :3_19_0"/>
    <junction id=":3_23_0" type="internal" x="991.36" y="-0.89" incLanes=":3_19_0 L17_0 L17_1 L17_2" intLanes=":3_1_0 :3_1_1 :3_1_2 :3_4_0 :3_5_0 :3_6_0 :3_6_1 :3_6_2 :3_11_0 :3_11_1 :3_11_2 :3_14_0"/>

    <connection from="L14" to="L20" fromLane="0" toLane="0" via=":3_15_0" tl="3" linkIndex="15" dir="r" state="O"/>
    <connection from="L14" to="L18" fromLane="0" toLane="0" via=":3_16_0" tl="3" linkIndex="16" dir="s" state="O"/>
    <connection from="L14" to="L18" fromLane="1" toLane="1" via=":3_16_1" tl="3" linkIndex="17" dir="s" state="O"/>
    <connection from="L14" to="L18" fromLane="2" toLane="2" via=":3_16_2" tl="3" linkIndex="18" dir="s" state="O"/>
    <connection from="L14" to="L16" fromLane="2" toLane="2" via=":3_19_0" tl="3" linkIndex="19" dir="l" state="o"/>
    <connection from="L15" to="L13" fromLane="0" toLane="0" via=":3_0_0" tl="3" linkIndex="0" dir="r" state="o"/>
    <connection from="L15" to="L20" fromLane="0" toLane="0" via=":3_1_0" tl="3" linkIndex="1" dir="s" state="o"/>
    <connection from="L15" to="L20" fromLane="1" toLane="1" via=":3_1_1" tl="3" linkIndex="2" dir="s" state="o"/>
    <connection from="L15" to="L20" fromLane="2" toLane="2" via=":3_1_2" tl="3" linkIndex="3" dir="s" state="o"/>
    <connection from="L15" to="L18" fromLane="2" toLane="2" via=":3_4_0" tl="3" linkIndex="4" dir="l" state="o"/>
    <connection from="L17" to="L16" fromLane="0" toLane="0" via=":3_5_0" tl="3" linkIndex="5" dir="r" state="O"/>
    <connection from="L17" to="L13" fromLane="0" toLane="0" via=":3_6_0" tl="3" linkIndex="6" dir="s" state="O"/>
    <connection from="L17" to="L13" fromLane="1" toLane="1" via=":3_6_1" tl="3" linkIndex="7" dir="s" state="O"/>
    <connection from="L17" to="L13" fromLane="2" toLane="2" via=":3_6_2" tl="3" linkIndex="8" dir="s" state="O"/>
    <connection from="L17" to="L20" fromLane="2" toLane="2" via=":3_9_0" tl="3" linkIndex="9" dir="l" state="o"/>
    <connection from="L19" to="L18" fromLane="0" toLane="0" via=":3_10_0" tl="3" linkIndex="10" dir="r" state="o"/>
    <connection from="L19" to="L16" fromLane="0" toLane="0" via=":3_11_0" tl="3" linkIndex="11" dir="s" state="o"/>
    <connection from="L19" to="L16" fromLane="1" toLane="1" via=":3_11_1" tl="3" linkIndex="12" dir="s" state="o"/>
    <connection from="L19" to="L16" fromLane="2" toLane="2" via=":3_11_2" tl="3" linkIndex="13" dir="s" state="o"/>
    <connection from="L19" to="L13" fromLane="2" toLane="2" via=":3_14_0" tl="3" linkIndex="14" dir="l" state="o"/>

    <connection from=":3_0" to="L13" fromLane="0" toLane="0" dir="r" state="M"/>
    <connection from=":3_1" to="L20" fromLane="0" toLane="0" dir="s" state="M"/>
    <connection from=":3_1" to="L20" fromLane="1" toLane="1" dir="s" state="M"/>
    <connection from=":3_1" to="L20" fromLane="2" toLane="2" dir="s" state="M"/>
    <connection from=":3_4" to="L18" fromLane="0" toLane="2" via=":3_20_0" dir="l" state="m"/>
    <connection from=":3_20" to="L18" fromLane="0" toLane="2" dir="l" state="M"/>
    <connection from=":3_5" to="L16" fromLane="0" toLane="0" dir="r" state="M"/>
    <connection from=":3_6" to="L13" fromLane="0" toLane="0" dir="s" state="M"/>
    <connection from=":3_6" to="L13" fromLane="1" toLane="1" dir="s" state="M"/>
    <connection from=":3_6" to="L13" fromLane="2" toLane="2" dir="s" state="M"/>
    <connection from=":3_9" to="L20" fromLane="0" toLane="2" via=":3_21_0" dir="l" state="m"/>
    <connection from=":3_21" to="L20" fromLane="0" toLane="2" dir="l" state="M"/>
    <connection from=":3_10" to="L18" fromLane="0" toLane="0" dir="r" state="M"/>
    <connection from=":3_11" to="L16" fromLane="0" toLane="0" dir="s" state="M"/>
    <connection from=":3_11" to="L16" fromLane="1" toLane="1" dir="s" state="M"/>
    <connection from=":3_11" to="L16" fromLane="2" toLane="2" dir="s" state="M"/>
    <connection from=":3_14" to="L13" fromLane="0" toLane="2" via=":3_22_0" dir="l" state="m"/>
    <connection from=":3_22" to="L13" fromLane="0" toLane="2" dir="l" state="M"/>
    <connection from=":3_15" to="L20" fromLane="0" toLane="0" dir="r" state="M"/>
    <connection from=":3_16" to="L18" fromLane="0" toLane="0" dir="s" state="M"/>
    <connection from=":3_16" to="L18" fromLane="1" toLane="1" dir="s" state="M"/>
    <connection from=":3_16" to="L18" fromLane="2" toLane="2" dir="s" state="M"/>
    <connection from=":3_19" to="L16" fromLane="0" toLane="2" via=":3_23_0" dir="l" state="m"/>
    <connection from=":3_23" to="L16" fromLane="0" toLane="2" dir="l" state="M"/>

</net>
